
This summary file was generated by TurbSim (v1.06.00, 21-Sep-2012) on 06-Dec-2025 at 16:24:16.


Runtime Options:

   2567890  Random seed #1
    RANLUX  Type of random number generator
         F  Output binary HH turbulence parameters?
         F  Output formatted turbulence parameters?
         F  Output AeroDyn HH files?
         F  Output AeroDyn FF files?
         T  Output BLADED FF files?
         T  Output tower data?
         F  Output formatted FF files?
         F  Output coherent turbulence time step file?
         T  Clockwise rotation when looking downwind?
 0 -  NONE  IEC turbulence models scaled to exact specified standard deviation


Turbine/Model Specifications:

        34  Vertical grid-point matrix dimension
        34  Horizontal grid-point matrix dimension
     0.050  Time step [seconds]
    60.000  Analysis time [seconds]
   660.000  Usable output time [seconds]
   100.000  Hub height [m]
   165.000  Grid height [m]
   165.000  Grid width [m]
     0.000  Vertical flow angle [degrees]
     0.000  Horizontal flow angle [degrees]


Meteorological Boundary Conditions:

    IECKAI  IEC Kaimal spectral model
         1  IEC standard: IEC 61400-1 Ed. 3: 2005
         A  IEC turbulence characteristic
       NTM  IEC Normal Turbulence Model
       N/A  IEC Extreme Turbulence Model (ETM) "c" parameter [m/s]
       IEC  Wind profile type
   100.000  Reference height [m]
    25.000  Reference wind speed [m/s]
       N/A  Jet height [m]
     0.200  Power law exponent
     0.030  Surface roughness length [m]


You have requested that the following file(s) be generated:

   25ms_2A.wnd (AeroDyn/BLADED full-field wnd file)
   25ms_2A.twr (Binary tower twr file)


Turbulence Simulation Scaling Parameter Summary:

   Turbulence model used                            =  IEC Kaimal
   Turbulence characteristic                        =  A
   IEC turbulence type                              =  Normal Turbulence Model
   IEC standard                                     =  IEC 61400-1 Ed. 3: 2005
   Mean wind speed at hub height                    =   25.000 m/s
   Expected value of turbulence intensity at 15 m/s =   16.000%
   Characteristic value of standard deviation       =    3.896 m/s
   Turbulence scale                                 =   42.000 m
   u-component integral scale                       =  340.200 m
   Coherency scale                                  =  340.200 m
   Characteristic value of hub turbulence intensity =   15.584%
   Gradient Richardson number                       =    0.000

   Wind profile type                                =  Power law on rotor disk, logarithmic elsewhere
   Power law exponent                               =    0.200
   Mean shear across rotor disk                     =    0.064 (m/s)/m
   Assumed rotor diameter                           =  165.000 m
   Surface roughness length                         =    0.030 m

   Number of time steps in the FFT                  =    13376
   Number of time steps output                      =    13332


Mean Flow Angles:

   Vertical   =   0.0 degrees
   Horizontal =   0.0 degrees

Mean Wind Speed Profile:

   Height    Wind Speed   Horizontal Angle  U-comp (X)   V-comp (Y)   W-comp (Z)
     (m)        (m/s)         (degrees)       (m/s)        (m/s)        (m/s)   
   ------    ----------   ----------------  ----------   ----------   ----------
    182.5       28.20            0.00         28.20         0.00         0.00
    177.5       28.04            0.00         28.04         0.00         0.00
    172.5       27.88            0.00         27.88         0.00         0.00
    167.5       27.72            0.00         27.72         0.00         0.00
    162.5       27.55            0.00         27.55         0.00         0.00
    157.5       27.38            0.00         27.38         0.00         0.00
    152.5       27.20            0.00         27.20         0.00         0.00
    147.5       27.02            0.00         27.02         0.00         0.00
    142.5       26.84            0.00         26.84         0.00         0.00
    137.5       26.64            0.00         26.64         0.00         0.00
    132.5       26.45            0.00         26.45         0.00         0.00
    127.5       26.24            0.00         26.24         0.00         0.00
    122.5       26.04            0.00         26.04         0.00         0.00
    117.5       25.82            0.00         25.82         0.00         0.00
    112.5       25.60            0.00         25.60         0.00         0.00
    107.5       25.36            0.00         25.36         0.00         0.00
    102.5       25.12            0.00         25.12         0.00         0.00
    100.0       25.00            0.00         25.00         0.00         0.00
     97.5       24.87            0.00         24.87         0.00         0.00
     92.5       24.61            0.00         24.61         0.00         0.00
     87.5       24.34            0.00         24.34         0.00         0.00
     82.5       24.06            0.00         24.06         0.00         0.00
     77.5       23.76            0.00         23.76         0.00         0.00
     72.5       23.44            0.00         23.44         0.00         0.00
     67.5       23.11            0.00         23.11         0.00         0.00
     62.5       22.76            0.00         22.76         0.00         0.00
     57.5       22.38            0.00         22.38         0.00         0.00
     52.5       21.98            0.00         21.98         0.00         0.00
     47.5       21.54            0.00         21.54         0.00         0.00
     42.5       21.07            0.00         21.07         0.00         0.00
     37.5       20.55            0.00         20.55         0.00         0.00
     32.5       19.97            0.00         19.97         0.00         0.00
     27.5       19.31            0.00         19.31         0.00         0.00
     22.5       18.55            0.00         18.55         0.00         0.00
     17.5       17.64            0.00         17.64         0.00         0.00
     12.5       18.59            0.00         18.59         0.00         0.00
      7.5       17.02            0.00         17.02         0.00         0.00
      2.5       13.63            0.00         13.63         0.00         0.00


Harvested Random Seeds after Generation of the Random Numbers:

    216442908 K1
            0 K2


Hub-Height Simulated Turbulence Statistical Summary:

   Type of Wind        Min (m/s)   Mean (m/s)    Max (m/s)  Sigma (m/s)       TI (%)
   ----------------    ---------   ----------    ---------  -----------       ------
   Longitudinal (u)        12.27        25.00        39.38        3.734       14.938
   Lateral (v)            -10.65         0.00        10.99        3.058       12.233
   Vertical (w)            -7.30         0.00         7.79        1.885        7.540
   U component             12.27        25.00        39.38        3.734       14.938
   V component            -10.65         0.00        10.99        3.058       12.233
   W component             -7.30         0.00         7.79        1.885        7.540
   Horizontal (U&V)        13.41        25.19        39.40        3.713       14.739
   Total                   13.58        25.26        39.58        3.702       14.657

                       Min Reynolds     Mean Reynolds    Max Reynolds    Correlation
   Product             Stress (m/s)^2   Stress (m/s)^2   Stress (m/s)^2  Coefficient
   ----------------    --------------   --------------   --------------  -----------
   u'w'                    -52.524            -0.503            53.841        -0.071
   u'v'                    -60.396             0.431            81.303         0.038
   v'w'                    -49.772            -0.305            39.972        -0.053


   Friction Velocity (Ustar)  =      0.709 m/s
   Maximum Instantaneous TKE  =    111.273 (m/s)^2
   Maximum Instantaneous CTKE =     43.261 (m/s)^2


Grid Point Variance Summary:

   Y-coord  -82.50  -77.50  -72.50  -67.50  -62.50  -57.50  -52.50  -47.50  -42.50  -37.50  -32.50  -27.50  -22.50  -17.50  -12.50   -7.50   -2.50    2.50    7.50   12.50   17.50   22.50   27.50   32.50   37.50   42.50   47.50   52.50   57.50   62.50   67.50   72.50   77.50   82.50

   Height   Standard deviation at grid points for the u component:
   182.50    3.960   3.975   3.992   3.998   3.746   3.756   3.949   3.893   3.843   3.862   3.930   3.882   3.848   3.631   3.631   3.660   3.738   3.850   3.589   3.754   3.892   3.790   3.804   3.785   3.749   3.968   3.844   3.960   3.777   3.669   3.750   3.725   3.701   3.699
   177.50    4.082   3.953   3.990   3.920   3.882   3.934   3.872   3.835   3.879   3.834   3.935   3.866   3.796   3.760   3.662   3.757   3.690   3.612   3.733   3.824   3.911   3.835   3.686   3.705   3.689   3.837   3.850   3.935   3.800   3.697   3.781   3.693   3.566   3.612
   172.50    4.126   4.055   4.053   3.816   3.837   3.940   3.872   3.715   3.842   3.912   3.952   3.921   3.911   3.721   3.707   3.785   3.754   3.701   3.864   3.862   3.917   3.858   3.707   3.603   3.555   3.727   3.825   3.723   3.753   3.817   3.751   3.625   3.542   3.480
   167.50    4.015   4.059   3.986   3.853   3.904   3.895   3.879   3.715   3.806   3.864   3.854   3.789   3.907   3.785   3.805   3.690   3.630   3.562   3.665   3.833   3.879   3.730   3.665   3.640   3.554   3.617   3.799   3.789   3.824   3.881   3.732   3.592   3.476   3.506
   162.50    4.011   4.048   4.031   3.943   4.019   3.996   3.850   3.918   3.676   3.704   3.744   3.728   3.676   3.779   3.721   3.677   3.622   3.402   3.556   3.613   3.644   3.546   3.582   3.617   3.621   3.661   3.724   3.748   3.748   3.926   3.715   3.713   3.457   3.345
   157.50    3.943   3.803   3.978   3.862   4.023   3.957   3.879   3.969   3.853   3.732   3.677   3.808   3.826   3.813   3.574   3.646   3.399   3.399   3.476   3.510   3.505   3.473   3.547   3.594   3.570   3.709   3.789   3.806   3.763   3.842   3.668   3.545   3.429   3.423
   152.50    3.914   3.854   3.691   3.918   3.876   3.978   3.904   3.885   3.801   3.820   3.820   3.684   3.623   3.557   3.590   3.558   3.411   3.239   3.330   3.465   3.387   3.318   3.495   3.609   3.460   3.635   3.720   3.776   3.769   3.678   3.640   3.567   3.617   3.620
   147.50    3.864   3.893   3.792   3.790   3.780   4.003   3.887   3.819   3.819   3.726   3.727   3.632   3.588   3.477   3.592   3.544   3.335   3.274   3.368   3.374   3.331   3.505   3.495   3.355   3.462   3.547   3.510   3.530   3.784   3.704   3.697   3.632   3.595   3.630
   142.50    3.874   3.782   3.796   3.850   3.905   3.923   3.846   3.689   3.710   3.690   3.662   3.513   3.409   3.510   3.510   3.425   3.369   3.353   3.318   3.404   3.394   3.567   3.442   3.294   3.341   3.361   3.500   3.533   3.526   3.672   3.658   3.565   3.703   3.745
   137.50    3.834   3.735   3.813   3.820   3.879   3.774   3.762   3.673   3.613   3.644   3.554   3.409   3.363   3.413   3.496   3.387   3.515   3.356   3.434   3.296   3.433   3.536   3.488   3.437   3.445   3.291   3.442   3.519   3.642   3.647   3.722   3.662   3.679   3.793
   132.50    3.807   3.736   3.746   3.777   3.812   3.805   3.804   3.695   3.583   3.567   3.488   3.338   3.283   3.256   3.239   3.402   3.357   3.441   3.517   3.542   3.477   3.411   3.398   3.460   3.398   3.265   3.298   3.420   3.551   3.667   3.658   3.732   3.704   3.682
   127.50    3.907   3.732   3.837   3.794   3.830   3.906   3.851   3.722   3.552   3.494   3.487   3.428   3.299   3.205   3.265   3.339   3.492   3.677   3.607   3.494   3.526   3.342   3.389   3.450   3.484   3.197   3.331   3.340   3.497   3.652   3.760   3.812   3.729   3.815
   122.50    3.807   3.637   3.677   3.774   3.857   3.840   3.759   3.611   3.520   3.399   3.490   3.334   3.404   3.322   3.388   3.506   3.603   3.777   3.696   3.614   3.477   3.425   3.477   3.518   3.523   3.269   3.231   3.252   3.336   3.614   3.602   3.692   3.724   3.772
   117.50    3.730   3.696   3.709   3.640   3.703   3.673   3.628   3.518   3.579   3.433   3.411   3.309   3.418   3.402   3.588   3.593   3.623   3.811   3.709   3.620   3.484   3.419   3.454   3.606   3.503   3.396   3.395   3.475   3.482   3.600   3.638   3.667   3.768   3.961
   112.50    3.624   3.660   3.595   3.674   3.555   3.571   3.602   3.573   3.535   3.386   3.309   3.250   3.340   3.483   3.522   3.574   3.779   3.747   3.762   3.722   3.647   3.462   3.443   3.568   3.571   3.544   3.584   3.587   3.571   3.689   3.788   3.875   3.754   3.948
   107.50    3.616   3.550   3.643   3.608   3.507   3.569   3.509   3.599   3.457   3.317   3.315   3.322   3.346   3.328   3.508   3.490   3.690   3.775   3.674   3.796   3.614   3.628   3.473   3.486   3.623   3.523   3.686   3.855   4.092   3.985   3.857   3.960   3.911   4.082
   102.50    3.539   3.535   3.452   3.516   3.548   3.550   3.468   3.573   3.421   3.290   3.259   3.256   3.431   3.443   3.600   3.606   3.573   3.737   3.701   3.596   3.641   3.571   3.571   3.581   3.662   3.622   3.739   3.721   3.982   4.005   4.087   4.045   4.052   4.077
    97.50    3.592   3.523   3.495   3.512   3.317   3.385   3.386   3.482   3.445   3.441   3.307   3.369   3.453   3.527   3.659   3.688   3.640   3.763   3.724   3.570   3.710   3.743   3.583   3.728   3.598   3.698   3.725   3.876   3.985   4.080   4.058   3.980   4.048   4.085
    92.50    3.404   3.414   3.506   3.434   3.368   3.472   3.432   3.411   3.559   3.420   3.238   3.396   3.537   3.679   3.746   3.644   3.764   3.730   3.730   3.690   3.775   3.647   3.674   3.759   3.710   3.774   3.722   3.781   3.889   3.944   4.042   4.055   3.971   4.027
    87.50    3.302   3.348   3.465   3.444   3.369   3.360   3.433   3.482   3.490   3.455   3.291   3.263   3.617   3.566   3.599   3.636   3.746   3.791   3.893   3.771   3.680   3.660   3.800   3.706   3.692   3.756   3.843   3.941   3.943   4.075   4.206   4.049   4.144   4.146
    82.50    3.235   3.147   3.307   3.357   3.303   3.327   3.340   3.424   3.463   3.426   3.340   3.321   3.445   3.497   3.484   3.527   3.714   3.767   3.820   3.782   3.764   3.680   3.663   3.704   3.970   3.869   3.872   4.056   4.082   4.112   4.053   4.155   4.180   4.113
    77.50    3.289   3.149   3.221   3.256   3.207   3.227   3.369   3.478   3.490   3.504   3.373   3.382   3.541   3.508   3.478   3.462   3.596   3.893   3.861   3.898   3.904   3.722   3.793   3.818   4.094   4.000   4.020   3.979   4.007   4.002   3.976   4.155   4.224   4.182
    72.50    3.344   3.180   3.157   3.149   3.157   3.262   3.411   3.443   3.341   3.311   3.298   3.348   3.430   3.554   3.647   3.808   3.835   3.931   3.903   4.005   3.905   3.872   3.925   3.937   3.960   4.135   4.048   3.853   3.918   3.904   3.939   4.150   4.171   3.925
    67.50    3.414   3.308   3.300   3.244   3.134   3.390   3.309   3.353   3.287   3.395   3.259   3.395   3.451   3.480   3.706   3.861   3.827   3.935   3.940   4.055   3.977   3.964   3.964   3.912   3.934   3.856   3.995   3.854   3.876   3.870   3.985   4.138   4.077   4.049
    62.50    3.452   3.417   3.378   3.348   3.193   3.265   3.368   3.385   3.413   3.342   3.272   3.344   3.512   3.607   3.682   3.711   3.810   3.822   3.940   3.875   3.911   3.805   3.807   3.898   3.886   4.013   4.040   3.951   3.844   3.946   4.041   4.028   4.079   4.039
    57.50    3.648   3.446   3.369   3.313   3.245   3.295   3.398   3.456   3.424   3.472   3.413   3.372   3.558   3.743   3.620   3.552   3.623   3.714   3.784   3.919   3.853   3.834   3.763   3.889   3.833   3.938   3.940   3.765   3.799   3.923   3.954   4.057   4.070   3.974
    52.50    3.515   3.609   3.520   3.346   3.503   3.373   3.408   3.437   3.388   3.451   3.503   3.502   3.610   3.675   3.658   3.738   3.688   3.636   3.724   3.805   3.814   3.788   3.753   3.850   3.954   3.851   3.875   3.928   3.818   3.955   3.930   3.930   3.917   3.753
    47.50    3.537   3.533   3.552   3.535   3.469   3.446   3.314   3.507   3.460   3.496   3.556   3.649   3.705   3.722   3.640   3.726   3.788   3.588   3.760   3.819   3.834   3.903   3.788   3.859   3.989   3.905   3.824   3.834   3.730   3.894   3.922   3.846   3.752   3.699
    42.50    3.489   3.587   3.702   3.645   3.380   3.436   3.395   3.461   3.478   3.328   3.373   3.538   3.671   3.613   3.631   3.666   3.747   3.790   3.733   3.724   3.710   3.672   3.980   3.977   3.995   3.862   3.881   3.818   3.887   3.908   3.845   3.733   3.709   3.600
    37.50    3.631   3.528   3.642   3.512   3.547   3.378   3.301   3.261   3.326   3.419   3.405   3.479   3.619   3.637   3.723   3.695   3.744   3.719   3.774   3.757   3.699   3.588   3.809   4.043   3.992   3.828   3.886   3.886   3.867   3.826   3.870   3.707   3.647   3.647
    32.50    3.638   3.591   3.520   3.535   3.425   3.312   3.387   3.234   3.364   3.427   3.454   3.573   3.545   3.634   3.593   3.554   3.593   3.634   3.687   3.846   3.823   3.879   3.762   4.050   3.961   4.034   3.950   4.027   3.787   3.649   3.736   3.729   3.566   3.543
    27.50    3.575   3.610   3.378   3.384   3.404   3.369   3.445   3.395   3.557   3.567   3.586   3.562   3.542   3.703   3.609   3.567   3.610   3.629   3.715   3.871   3.746   3.706   3.776   3.908   4.070   4.022   4.008   3.931   3.756   3.517   3.691   3.565   3.535   3.453
    22.50    3.666   3.487   3.408   3.550   3.602   3.465   3.387   3.393   3.477   3.537   3.613   3.594   3.604   3.684   3.643   3.573   3.501   3.609   3.672   3.759   3.687   3.836   3.934   4.007   4.039   3.942   3.825   3.784   3.525   3.521   3.553   3.580   3.491   3.390
    17.50    3.796   3.592   3.678   3.603   3.603   3.542   3.438   3.515   3.510   3.501   3.625   3.653   3.668   3.614   3.538   3.549   3.417   3.397   3.599   3.674   3.726   3.845   3.804   3.971   3.894   3.779   3.675   3.720   3.527   3.533   3.625   3.666   3.474   3.497

   Height   Standard deviation at grid points for the v component:
   182.50    3.058   3.058   3.058   3.058   3.058   3.058   3.058   3.058   3.058   3.058   3.058   3.058   3.058   3.058   3.058   3.058   3.058   3.058   3.058   3.058   3.058   3.058   3.058   3.058   3.058   3.058   3.058   3.058   3.058   3.058   3.058   3.058   3.058   3.058
   177.50    3.058   3.058   3.058   3.058   3.058   3.058   3.058   3.058   3.058   3.058   3.058   3.058   3.058   3.058   3.058   3.058   3.058   3.058   3.058   3.058   3.058   3.058   3.058   3.058   3.058   3.058   3.058   3.058   3.058   3.058   3.058   3.058   3.058   3.058
   172.50    3.058   3.058   3.058   3.058   3.058   3.058   3.058   3.058   3.058   3.058   3.058   3.058   3.058   3.058   3.058   3.058   3.058   3.058   3.058   3.058   3.058   3.058   3.058   3.058   3.058   3.058   3.058   3.058   3.058   3.058   3.058   3.058   3.058   3.058
   167.50    3.058   3.058   3.058   3.058   3.058   3.058   3.058   3.058   3.058   3.058   3.058   3.058   3.058   3.058   3.058   3.058   3.058   3.058   3.058   3.058   3.058   3.058   3.058   3.058   3.058   3.058   3.058   3.058   3.058   3.058   3.058   3.058   3.058   3.058
   162.50    3.058   3.058   3.058   3.058   3.058   3.058   3.058   3.058   3.058   3.058   3.058   3.058   3.058   3.058   3.058   3.058   3.058   3.058   3.058   3.058   3.058   3.058   3.058   3.058   3.058   3.058   3.058   3.058   3.058   3.058   3.058   3.058   3.058   3.058
   157.50    3.058   3.058   3.058   3.058   3.058   3.058   3.058   3.058   3.058   3.058   3.058   3.058   3.058   3.058   3.058   3.058   3.058   3.058   3.058   3.058   3.058   3.058   3.058   3.058   3.058   3.058   3.058   3.058   3.058   3.058   3.058   3.058   3.058   3.058
   152.50    3.058   3.058   3.058   3.058   3.058   3.058   3.058   3.058   3.058   3.058   3.058   3.058   3.058   3.058   3.058   3.058   3.058   3.058   3.058   3.058   3.058   3.058   3.058   3.058   3.058   3.058   3.058   3.058   3.058   3.058   3.058   3.058   3.058   3.058
   147.50    3.058   3.058   3.058   3.058   3.058   3.058   3.058   3.058   3.058   3.058   3.058   3.058   3.058   3.058   3.058   3.058   3.058   3.058   3.058   3.058   3.058   3.058   3.058   3.058   3.058   3.058   3.058   3.058   3.058   3.058   3.058   3.058   3.058   3.058
   142.50    3.058   3.058   3.058   3.058   3.058   3.058   3.058   3.058   3.058   3.058   3.058   3.058   3.058   3.058   3.058   3.058   3.058   3.058   3.058   3.058   3.058   3.058   3.058   3.058   3.058   3.058   3.058   3.058   3.058   3.058   3.058   3.058   3.058   3.058
   137.50    3.058   3.058   3.058   3.058   3.058   3.058   3.058   3.058   3.058   3.058   3.058   3.058   3.058   3.058   3.058   3.058   3.058   3.058   3.058   3.058   3.058   3.058   3.058   3.058   3.058   3.058   3.058   3.058   3.058   3.058   3.058   3.058   3.058   3.058
   132.50    3.058   3.058   3.058   3.058   3.058   3.058   3.058   3.058   3.058   3.058   3.058   3.058   3.058   3.058   3.058   3.058   3.058   3.058   3.058   3.058   3.058   3.058   3.058   3.058   3.058   3.058   3.058   3.058   3.058   3.058   3.058   3.058   3.058   3.058
   127.50    3.058   3.058   3.058   3.058   3.058   3.058   3.058   3.058   3.058   3.058   3.058   3.058   3.058   3.058   3.058   3.058   3.058   3.058   3.058   3.058   3.058   3.058   3.058   3.058   3.058   3.058   3.058   3.058   3.058   3.058   3.058   3.058   3.058   3.058
   122.50    3.058   3.058   3.058   3.058   3.058   3.058   3.058   3.058   3.058   3.058   3.058   3.058   3.058   3.058   3.058   3.058   3.058   3.058   3.058   3.058   3.058   3.058   3.058   3.058   3.058   3.058   3.058   3.058   3.058   3.058   3.058   3.058   3.058   3.058
   117.50    3.058   3.058   3.058   3.058   3.058   3.058   3.058   3.058   3.058   3.058   3.058   3.058   3.058   3.058   3.058   3.058   3.058   3.058   3.058   3.058   3.058   3.058   3.058   3.058   3.058   3.058   3.058   3.058   3.058   3.058   3.058   3.058   3.058   3.058
   112.50    3.058   3.058   3.058   3.058   3.058   3.058   3.058   3.058   3.058   3.058   3.058   3.058   3.058   3.058   3.058   3.058   3.058   3.058   3.058   3.058   3.058   3.058   3.058   3.058   3.058   3.058   3.058   3.058   3.058   3.058   3.058   3.058   3.058   3.058
   107.50    3.058   3.058   3.058   3.058   3.058   3.058   3.058   3.058   3.058   3.058   3.058   3.058   3.058   3.058   3.058   3.058   3.058   3.058   3.058   3.058   3.058   3.058   3.058   3.058   3.058   3.058   3.058   3.058   3.058   3.058   3.058   3.058   3.058   3.058
   102.50    3.058   3.058   3.058   3.058   3.058   3.058   3.058   3.058   3.058   3.058   3.058   3.058   3.058   3.058   3.058   3.058   3.058   3.058   3.058   3.058   3.058   3.058   3.058   3.058   3.058   3.058   3.058   3.058   3.058   3.058   3.058   3.058   3.058   3.058
    97.50    3.058   3.058   3.058   3.058   3.058   3.058   3.058   3.058   3.058   3.058   3.058   3.058   3.058   3.058   3.058   3.058   3.058   3.058   3.058   3.058   3.058   3.058   3.058   3.058   3.058   3.058   3.058   3.058   3.058   3.058   3.058   3.058   3.058   3.058
    92.50    3.058   3.058   3.058   3.058   3.058   3.058   3.058   3.058   3.058   3.058   3.058   3.058   3.058   3.058   3.058   3.058   3.058   3.058   3.058   3.058   3.058   3.058   3.058   3.058   3.058   3.058   3.058   3.058   3.058   3.058   3.058   3.058   3.058   3.058
    87.50    3.058   3.058   3.058   3.058   3.058   3.058   3.058   3.058   3.058   3.058   3.058   3.058   3.058   3.058   3.058   3.058   3.058   3.058   3.058   3.058   3.058   3.058   3.058   3.058   3.058   3.058   3.058   3.058   3.058   3.058   3.058   3.058   3.058   3.058
    82.50    3.058   3.058   3.058   3.058   3.058   3.058   3.058   3.058   3.058   3.058   3.058   3.058   3.058   3.058   3.058   3.058   3.058   3.058   3.058   3.058   3.058   3.058   3.058   3.058   3.058   3.058   3.058   3.058   3.058   3.058   3.058   3.058   3.058   3.058
    77.50    3.058   3.058   3.058   3.058   3.058   3.058   3.058   3.058   3.058   3.058   3.058   3.058   3.058   3.058   3.058   3.058   3.058   3.058   3.058   3.058   3.058   3.058   3.058   3.058   3.058   3.058   3.058   3.058   3.058   3.058   3.058   3.058   3.058   3.058
    72.50    3.058   3.058   3.058   3.058   3.058   3.058   3.058   3.058   3.058   3.058   3.058   3.058   3.058   3.058   3.058   3.058   3.058   3.058   3.058   3.058   3.058   3.058   3.058   3.058   3.058   3.058   3.058   3.058   3.058   3.058   3.058   3.058   3.058   3.058
    67.50    3.058   3.058   3.058   3.058   3.058   3.058   3.058   3.058   3.058   3.058   3.058   3.058   3.058   3.058   3.058   3.058   3.058   3.058   3.058   3.058   3.058   3.058   3.058   3.058   3.058   3.058   3.058   3.058   3.058   3.058   3.058   3.058   3.058   3.058
    62.50    3.058   3.058   3.058   3.058   3.058   3.058   3.058   3.058   3.058   3.058   3.058   3.058   3.058   3.058   3.058   3.058   3.058   3.058   3.058   3.058   3.058   3.058   3.058   3.058   3.058   3.058   3.058   3.058   3.058   3.058   3.058   3.058   3.058   3.058
    57.50    3.058   3.058   3.058   3.058   3.058   3.058   3.058   3.058   3.058   3.058   3.058   3.058   3.058   3.058   3.058   3.058   3.058   3.058   3.058   3.058   3.058   3.058   3.058   3.058   3.058   3.058   3.058   3.058   3.058   3.058   3.058   3.058   3.058   3.058
    52.50    3.058   3.058   3.058   3.058   3.058   3.058   3.058   3.058   3.058   3.058   3.058   3.058   3.058   3.058   3.058   3.058   3.058   3.058   3.058   3.058   3.058   3.058   3.058   3.058   3.058   3.058   3.058   3.058   3.058   3.058   3.058   3.058   3.058   3.058
    47.50    3.058   3.058   3.058   3.058   3.058   3.058   3.058   3.058   3.058   3.058   3.058   3.058   3.058   3.058   3.058   3.058   3.058   3.058   3.058   3.058   3.058   3.058   3.058   3.058   3.058   3.058   3.058   3.058   3.058   3.058   3.058   3.058   3.058   3.058
    42.50    3.058   3.058   3.058   3.058   3.058   3.058   3.058   3.058   3.058   3.058   3.058   3.058   3.058   3.058   3.058   3.058   3.058   3.058   3.058   3.058   3.058   3.058   3.058   3.058   3.058   3.058   3.058   3.058   3.058   3.058   3.058   3.058   3.058   3.058
    37.50    3.058   3.058   3.058   3.058   3.058   3.058   3.058   3.058   3.058   3.058   3.058   3.058   3.058   3.058   3.058   3.058   3.058   3.058   3.058   3.058   3.058   3.058   3.058   3.058   3.058   3.058   3.058   3.058   3.058   3.058   3.058   3.058   3.058   3.058
    32.50    3.058   3.058   3.058   3.058   3.058   3.058   3.058   3.058   3.058   3.058   3.058   3.058   3.058   3.058   3.058   3.058   3.058   3.058   3.058   3.058   3.058   3.058   3.058   3.058   3.058   3.058   3.058   3.058   3.058   3.058   3.058   3.058   3.058   3.058
    27.50    3.058   3.058   3.058   3.058   3.058   3.058   3.058   3.058   3.058   3.058   3.058   3.058   3.058   3.058   3.058   3.058   3.058   3.058   3.058   3.058   3.058   3.058   3.058   3.058   3.058   3.058   3.058   3.058   3.058   3.058   3.058   3.058   3.058   3.058
    22.50    3.058   3.058   3.058   3.058   3.058   3.058   3.058   3.058   3.058   3.058   3.058   3.058   3.058   3.058   3.058   3.058   3.058   3.058   3.058   3.058   3.058   3.058   3.058   3.058   3.058   3.058   3.058   3.058   3.058   3.058   3.058   3.058   3.058   3.058
    17.50    3.058   3.058   3.058   3.058   3.058   3.058   3.058   3.058   3.058   3.058   3.058   3.058   3.058   3.058   3.058   3.058   3.058   3.058   3.058   3.058   3.058   3.058   3.058   3.058   3.058   3.058   3.058   3.058   3.058   3.058   3.058   3.058   3.058   3.058

   Height   Standard deviation at grid points for the w component:
   182.50    1.885   1.885   1.885   1.885   1.885   1.885   1.885   1.885   1.885   1.885   1.885   1.885   1.885   1.885   1.885   1.885   1.885   1.885   1.885   1.885   1.885   1.885   1.885   1.885   1.885   1.885   1.885   1.885   1.885   1.885   1.885   1.885   1.885   1.885
   177.50    1.885   1.885   1.885   1.885   1.885   1.885   1.885   1.885   1.885   1.885   1.885   1.885   1.885   1.885   1.885   1.885   1.885   1.885   1.885   1.885   1.885   1.885   1.885   1.885   1.885   1.885   1.885   1.885   1.885   1.885   1.885   1.885   1.885   1.885
   172.50    1.885   1.885   1.885   1.885   1.885   1.885   1.885   1.885   1.885   1.885   1.885   1.885   1.885   1.885   1.885   1.885   1.885   1.885   1.885   1.885   1.885   1.885   1.885   1.885   1.885   1.885   1.885   1.885   1.885   1.885   1.885   1.885   1.885   1.885
   167.50    1.885   1.885   1.885   1.885   1.885   1.885   1.885   1.885   1.885   1.885   1.885   1.885   1.885   1.885   1.885   1.885   1.885   1.885   1.885   1.885   1.885   1.885   1.885   1.885   1.885   1.885   1.885   1.885   1.885   1.885   1.885   1.885   1.885   1.885
   162.50    1.885   1.885   1.885   1.885   1.885   1.885   1.885   1.885   1.885   1.885   1.885   1.885   1.885   1.885   1.885   1.885   1.885   1.885   1.885   1.885   1.885   1.885   1.885   1.885   1.885   1.885   1.885   1.885   1.885   1.885   1.885   1.885   1.885   1.885
   157.50    1.885   1.885   1.885   1.885   1.885   1.885   1.885   1.885   1.885   1.885   1.885   1.885   1.885   1.885   1.885   1.885   1.885   1.885   1.885   1.885   1.885   1.885   1.885   1.885   1.885   1.885   1.885   1.885   1.885   1.885   1.885   1.885   1.885   1.885
   152.50    1.885   1.885   1.885   1.885   1.885   1.885   1.885   1.885   1.885   1.885   1.885   1.885   1.885   1.885   1.885   1.885   1.885   1.885   1.885   1.885   1.885   1.885   1.885   1.885   1.885   1.885   1.885   1.885   1.885   1.885   1.885   1.885   1.885   1.885
   147.50    1.885   1.885   1.885   1.885   1.885   1.885   1.885   1.885   1.885   1.885   1.885   1.885   1.885   1.885   1.885   1.885   1.885   1.885   1.885   1.885   1.885   1.885   1.885   1.885   1.885   1.885   1.885   1.885   1.885   1.885   1.885   1.885   1.885   1.885
   142.50    1.885   1.885   1.885   1.885   1.885   1.885   1.885   1.885   1.885   1.885   1.885   1.885   1.885   1.885   1.885   1.885   1.885   1.885   1.885   1.885   1.885   1.885   1.885   1.885   1.885   1.885   1.885   1.885   1.885   1.885   1.885   1.885   1.885   1.885
   137.50    1.885   1.885   1.885   1.885   1.885   1.885   1.885   1.885   1.885   1.885   1.885   1.885   1.885   1.885   1.885   1.885   1.885   1.885   1.885   1.885   1.885   1.885   1.885   1.885   1.885   1.885   1.885   1.885   1.885   1.885   1.885   1.885   1.885   1.885
   132.50    1.885   1.885   1.885   1.885   1.885   1.885   1.885   1.885   1.885   1.885   1.885   1.885   1.885   1.885   1.885   1.885   1.885   1.885   1.885   1.885   1.885   1.885   1.885   1.885   1.885   1.885   1.885   1.885   1.885   1.885   1.885   1.885   1.885   1.885
   127.50    1.885   1.885   1.885   1.885   1.885   1.885   1.885   1.885   1.885   1.885   1.885   1.885   1.885   1.885   1.885   1.885   1.885   1.885   1.885   1.885   1.885   1.885   1.885   1.885   1.885   1.885   1.885   1.885   1.885   1.885   1.885   1.885   1.885   1.885
   122.50    1.885   1.885   1.885   1.885   1.885   1.885   1.885   1.885   1.885   1.885   1.885   1.885   1.885   1.885   1.885   1.885   1.885   1.885   1.885   1.885   1.885   1.885   1.885   1.885   1.885   1.885   1.885   1.885   1.885   1.885   1.885   1.885   1.885   1.885
   117.50    1.885   1.885   1.885   1.885   1.885   1.885   1.885   1.885   1.885   1.885   1.885   1.885   1.885   1.885   1.885   1.885   1.885   1.885   1.885   1.885   1.885   1.885   1.885   1.885   1.885   1.885   1.885   1.885   1.885   1.885   1.885   1.885   1.885   1.885
   112.50    1.885   1.885   1.885   1.885   1.885   1.885   1.885   1.885   1.885   1.885   1.885   1.885   1.885   1.885   1.885   1.885   1.885   1.885   1.885   1.885   1.885   1.885   1.885   1.885   1.885   1.885   1.885   1.885   1.885   1.885   1.885   1.885   1.885   1.885
   107.50    1.885   1.885   1.885   1.885   1.885   1.885   1.885   1.885   1.885   1.885   1.885   1.885   1.885   1.885   1.885   1.885   1.885   1.885   1.885   1.885   1.885   1.885   1.885   1.885   1.885   1.885   1.885   1.885   1.885   1.885   1.885   1.885   1.885   1.885
   102.50    1.885   1.885   1.885   1.885   1.885   1.885   1.885   1.885   1.885   1.885   1.885   1.885   1.885   1.885   1.885   1.885   1.885   1.885   1.885   1.885   1.885   1.885   1.885   1.885   1.885   1.885   1.885   1.885   1.885   1.885   1.885   1.885   1.885   1.885
    97.50    1.885   1.885   1.885   1.885   1.885   1.885   1.885   1.885   1.885   1.885   1.885   1.885   1.885   1.885   1.885   1.885   1.885   1.885   1.885   1.885   1.885   1.885   1.885   1.885   1.885   1.885   1.885   1.885   1.885   1.885   1.885   1.885   1.885   1.885
    92.50    1.885   1.885   1.885   1.885   1.885   1.885   1.885   1.885   1.885   1.885   1.885   1.885   1.885   1.885   1.885   1.885   1.885   1.885   1.885   1.885   1.885   1.885   1.885   1.885   1.885   1.885   1.885   1.885   1.885   1.885   1.885   1.885   1.885   1.885
    87.50    1.885   1.885   1.885   1.885   1.885   1.885   1.885   1.885   1.885   1.885   1.885   1.885   1.885   1.885   1.885   1.885   1.885   1.885   1.885   1.885   1.885   1.885   1.885   1.885   1.885   1.885   1.885   1.885   1.885   1.885   1.885   1.885   1.885   1.885
    82.50    1.885   1.885   1.885   1.885   1.885   1.885   1.885   1.885   1.885   1.885   1.885   1.885   1.885   1.885   1.885   1.885   1.885   1.885   1.885   1.885   1.885   1.885   1.885   1.885   1.885   1.885   1.885   1.885   1.885   1.885   1.885   1.885   1.885   1.885
    77.50    1.885   1.885   1.885   1.885   1.885   1.885   1.885   1.885   1.885   1.885   1.885   1.885   1.885   1.885   1.885   1.885   1.885   1.885   1.885   1.885   1.885   1.885   1.885   1.885   1.885   1.885   1.885   1.885   1.885   1.885   1.885   1.885   1.885   1.885
    72.50    1.885   1.885   1.885   1.885   1.885   1.885   1.885   1.885   1.885   1.885   1.885   1.885   1.885   1.885   1.885   1.885   1.885   1.885   1.885   1.885   1.885   1.885   1.885   1.885   1.885   1.885   1.885   1.885   1.885   1.885   1.885   1.885   1.885   1.885
    67.50    1.885   1.885   1.885   1.885   1.885   1.885   1.885   1.885   1.885   1.885   1.885   1.885   1.885   1.885   1.885   1.885   1.885   1.885   1.885   1.885   1.885   1.885   1.885   1.885   1.885   1.885   1.885   1.885   1.885   1.885   1.885   1.885   1.885   1.885
    62.50    1.885   1.885   1.885   1.885   1.885   1.885   1.885   1.885   1.885   1.885   1.885   1.885   1.885   1.885   1.885   1.885   1.885   1.885   1.885   1.885   1.885   1.885   1.885   1.885   1.885   1.885   1.885   1.885   1.885   1.885   1.885   1.885   1.885   1.885
    57.50    1.885   1.885   1.885   1.885   1.885   1.885   1.885   1.885   1.885   1.885   1.885   1.885   1.885   1.885   1.885   1.885   1.885   1.885   1.885   1.885   1.885   1.885   1.885   1.885   1.885   1.885   1.885   1.885   1.885   1.885   1.885   1.885   1.885   1.885
    52.50    1.885   1.885   1.885   1.885   1.885   1.885   1.885   1.885   1.885   1.885   1.885   1.885   1.885   1.885   1.885   1.885   1.885   1.885   1.885   1.885   1.885   1.885   1.885   1.885   1.885   1.885   1.885   1.885   1.885   1.885   1.885   1.885   1.885   1.885
    47.50    1.885   1.885   1.885   1.885   1.885   1.885   1.885   1.885   1.885   1.885   1.885   1.885   1.885   1.885   1.885   1.885   1.885   1.885   1.885   1.885   1.885   1.885   1.885   1.885   1.885   1.885   1.885   1.885   1.885   1.885   1.885   1.885   1.885   1.885
    42.50    1.885   1.885   1.885   1.885   1.885   1.885   1.885   1.885   1.885   1.885   1.885   1.885   1.885   1.885   1.885   1.885   1.885   1.885   1.885   1.885   1.885   1.885   1.885   1.885   1.885   1.885   1.885   1.885   1.885   1.885   1.885   1.885   1.885   1.885
    37.50    1.885   1.885   1.885   1.885   1.885   1.885   1.885   1.885   1.885   1.885   1.885   1.885   1.885   1.885   1.885   1.885   1.885   1.885   1.885   1.885   1.885   1.885   1.885   1.885   1.885   1.885   1.885   1.885   1.885   1.885   1.885   1.885   1.885   1.885
    32.50    1.885   1.885   1.885   1.885   1.885   1.885   1.885   1.885   1.885   1.885   1.885   1.885   1.885   1.885   1.885   1.885   1.885   1.885   1.885   1.885   1.885   1.885   1.885   1.885   1.885   1.885   1.885   1.885   1.885   1.885   1.885   1.885   1.885   1.885
    27.50    1.885   1.885   1.885   1.885   1.885   1.885   1.885   1.885   1.885   1.885   1.885   1.885   1.885   1.885   1.885   1.885   1.885   1.885   1.885   1.885   1.885   1.885   1.885   1.885   1.885   1.885   1.885   1.885   1.885   1.885   1.885   1.885   1.885   1.885
    22.50    1.885   1.885   1.885   1.885   1.885   1.885   1.885   1.885   1.885   1.885   1.885   1.885   1.885   1.885   1.885   1.885   1.885   1.885   1.885   1.885   1.885   1.885   1.885   1.885   1.885   1.885   1.885   1.885   1.885   1.885   1.885   1.885   1.885   1.885
    17.50    1.885   1.885   1.885   1.885   1.885   1.885   1.885   1.885   1.885   1.885   1.885   1.885   1.885   1.885   1.885   1.885   1.885   1.885   1.885   1.885   1.885   1.885   1.885   1.885   1.885   1.885   1.885   1.885   1.885   1.885   1.885   1.885   1.885   1.885

   Mean standard deviation across all grid points:
      u component:    3.660 m/s
      v component:    3.058 m/s
      w component:    1.885 m/s


U-component (X) statistics from the interpolated hub point:

   Mean =  24.9988 m/s
   TI   =  13.5269 %


Normalizing Parameters for Binary Data (approximate statistics):

   UBar  =  25.0000 m/s
   TI(u) =  14.9377 %
   TI(v) =  12.2333 %
   TI(w) =   7.5401 %

   Height Offset =   0.0000 m
   Grid Base     =  17.5000 m

Nyquist frequency of turbulent wind field =        10.000 Hz


Processing complete.  167.56 CPU seconds used.
