
This summary file was generated by TurbSim (v1.06.00, 21-Sep-2012) on 21-Dec-2025 at 12:42:28.


Runtime Options:

    100000  Random seed #1
    RANLUX  Type of random number generator
         F  Output binary HH turbulence parameters?
         F  Output formatted turbulence parameters?
         F  Output AeroDyn HH files?
         F  Output AeroDyn FF files?
         T  Output BLADED FF files?
         T  Output tower data?
         F  Output formatted FF files?
         F  Output coherent turbulence time step file?
         T  Clockwise rotation when looking downwind?
 0 -  NONE  IEC turbulence models scaled to exact specified standard deviation


Turbine/Model Specifications:

        17  Vertical grid-point matrix dimension
        17  Horizontal grid-point matrix dimension
     0.050  Time step [seconds]
    60.000  Analysis time [seconds]
   660.000  Usable output time [seconds]
   100.000  Hub height [m]
   165.000  Grid height [m]
   165.000  Grid width [m]
     0.000  Vertical flow angle [degrees]
     0.000  Horizontal flow angle [degrees]


Meteorological Boundary Conditions:

    IECKAI  IEC Kaimal spectral model
         1  IEC standard: IEC 61400-1 Ed. 3: 2005
         A  IEC turbulence characteristic
       NTM  IEC Normal Turbulence Model
       N/A  IEC Extreme Turbulence Model (ETM) "c" parameter [m/s]
       IEC  Wind profile type
   100.000  Reference height [m]
    12.400  Reference wind speed [m/s]
       N/A  Jet height [m]
     0.200  Power law exponent
     0.030  Surface roughness length [m]


You have requested that the following file(s) be generated:

   12ms_2A.wnd (AeroDyn/BLADED full-field wnd file)
   12ms_2A.twr (Binary tower twr file)


Turbulence Simulation Scaling Parameter Summary:

   Turbulence model used                            =  IEC Kaimal
   Turbulence characteristic                        =  A
   IEC turbulence type                              =  Normal Turbulence Model
   IEC standard                                     =  IEC 61400-1 Ed. 3: 2005
   Mean wind speed at hub height                    =   12.400 m/s
   Expected value of turbulence intensity at 15 m/s =   16.000%
   Characteristic value of standard deviation       =    2.384 m/s
   Turbulence scale                                 =   42.000 m
   u-component integral scale                       =  340.200 m
   Coherency scale                                  =  340.200 m
   Characteristic value of hub turbulence intensity =   19.226%
   Gradient Richardson number                       =    0.000

   Wind profile type                                =  Power law on rotor disk, logarithmic elsewhere
   Power law exponent                               =    0.200
   Mean shear across rotor disk                     =    0.032 (m/s)/m
   Assumed rotor diameter                           =  165.000 m
   Surface roughness length                         =    0.030 m

   Number of time steps in the FFT                  =    13500
   Number of time steps output                      =    13467


Mean Flow Angles:

   Vertical   =   0.0 degrees
   Horizontal =   0.0 degrees

Mean Wind Speed Profile:

   Height    Wind Speed   Horizontal Angle  U-comp (X)   V-comp (Y)   W-comp (Z)
     (m)        (m/s)         (degrees)       (m/s)        (m/s)        (m/s)   
   ------    ----------   ----------------  ----------   ----------   ----------
    182.5       13.99            0.00         13.99         0.00         0.00
    172.2       13.82            0.00         13.82         0.00         0.00
    161.9       13.65            0.00         13.65         0.00         0.00
    151.6       13.48            0.00         13.48         0.00         0.00
    141.2       13.29            0.00         13.29         0.00         0.00
    130.9       13.09            0.00         13.09         0.00         0.00
    120.6       12.87            0.00         12.87         0.00         0.00
    110.3       12.65            0.00         12.65         0.00         0.00
    100.0       12.40            0.00         12.40         0.00         0.00
     89.7       12.13            0.00         12.13         0.00         0.00
     79.4       11.84            0.00         11.84         0.00         0.00
     69.1       11.52            0.00         11.52         0.00         0.00
     58.8       11.15            0.00         11.15         0.00         0.00
     48.4       10.73            0.00         10.73         0.00         0.00
     38.1       10.23            0.00         10.23         0.00         0.00
     27.8        9.60            0.00          9.60         0.00         0.00
     17.5        8.75            0.00          8.75         0.00         0.00
      7.2        8.38            0.00          8.38         0.00         0.00


Harvested Random Seeds after Generation of the Random Numbers:

     54565213 K1
            0 K2


Hub-Height Simulated Turbulence Statistical Summary:

   Type of Wind        Min (m/s)   Mean (m/s)    Max (m/s)  Sigma (m/s)       TI (%)
   ----------------    ---------   ----------    ---------  -----------       ------
   Longitudinal (u)         6.10        12.40        19.62        2.117       17.076
   Lateral (v)             -6.74         0.00         6.03        1.867       15.059
   Vertical (w)            -4.12         0.00         4.23        1.165        9.396
   U component              6.10        12.40        19.62        2.117       17.076
   V component             -6.74         0.00         6.03        1.867       15.059
   W component             -4.12         0.00         4.23        1.165        9.396
   Horizontal (U&V)         6.11        12.54        20.00        2.133       17.015
   Total                    6.11        12.59        20.00        2.123       16.858

                       Min Reynolds     Mean Reynolds    Max Reynolds    Correlation
   Product             Stress (m/s)^2   Stress (m/s)^2   Stress (m/s)^2  Coefficient
   ----------------    --------------   --------------   --------------  -----------
   u'w'                    -14.603             0.244            15.950         0.099
   u'v'                    -37.754            -0.300            26.619        -0.076
   v'w'                    -10.538             0.084            16.910         0.038


   Friction Velocity (Ustar)  =      0.494 m/s
   Maximum Instantaneous TKE  =     38.145 (m/s)^2
   Maximum Instantaneous CTKE =     18.992 (m/s)^2


Grid Point Variance Summary:

   Y-coord  -82.50  -72.19  -61.88  -51.56  -41.25  -30.94  -20.62  -10.31    0.00   10.31   20.62   30.94   41.25   51.56   61.88   72.19   82.50

   Height   Standard deviation at grid points for the u component:
   182.50    2.018   2.008   1.994   1.909   2.108   2.079   2.148   2.217   2.367   2.494   2.389   2.348   2.224   2.368   2.206   2.133   1.975
   172.19    2.325   2.286   2.276   1.997   2.040   2.210   2.135   2.287   2.441   2.436   2.426   2.357   2.243   2.245   2.109   2.034   2.098
   161.88    2.349   2.505   2.484   2.192   2.089   2.264   2.384   2.312   2.500   2.514   2.372   2.180   2.247   2.196   2.128   1.916   1.972
   151.56    2.309   2.398   2.449   2.296   2.272   2.320   2.362   2.226   2.345   2.371   2.254   2.272   2.271   2.199   2.172   2.025   1.974
   141.25    2.485   2.362   2.297   2.300   2.189   2.038   2.190   2.198   2.304   2.325   2.465   2.230   2.145   2.130   2.046   1.879   1.952
   130.94    2.558   2.605   2.466   2.427   2.253   2.314   2.110   2.059   2.248   2.319   2.259   2.257   2.056   2.161   2.174   1.966   1.923
   120.62    2.488   2.571   2.441   2.531   2.342   2.226   2.215   2.143   2.189   2.267   2.276   2.164   2.087   1.983   1.949   1.986   2.017
   110.31    2.291   2.416   2.494   2.581   2.403   2.258   2.357   2.179   2.256   2.178   2.239   2.202   2.070   1.916   1.983   1.862   2.026
   100.00    2.341   2.360   2.344   2.518   2.304   2.350   2.380   2.163   2.117   2.197   2.142   2.197   2.029   2.114   1.951   2.006   1.993
    89.69    2.376   2.526   2.365   2.486   2.273   2.315   2.305   2.230   2.314   2.301   2.266   2.151   2.228   2.143   2.114   2.152   2.212
    79.38    2.506   2.566   2.388   2.457   2.413   2.463   2.356   2.270   2.416   2.374   2.333   2.253   2.327   2.285   2.117   2.175   2.199
    69.06    2.322   2.506   2.514   2.353   2.335   2.388   2.442   2.323   2.363   2.448   2.430   2.218   2.164   2.194   2.209   2.014   2.023
    58.75    2.312   2.352   2.394   2.463   2.465   2.417   2.368   2.343   2.368   2.533   2.349   2.301   2.166   2.251   2.055   1.973   2.088
    48.44    2.228   2.423   2.455   2.390   2.368   2.477   2.350   2.304   2.599   2.653   2.545   2.415   2.175   2.201   2.237   2.133   2.013
    38.12    2.232   2.265   2.312   2.400   2.642   2.526   2.445   2.381   2.437   2.345   2.407   2.509   2.219   2.140   2.161   2.300   2.291
    27.81    2.249   2.203   2.267   2.457   2.387   2.349   2.316   2.318   2.296   2.306   2.314   2.519   2.305   2.225   2.192   2.050   2.104
    17.50    2.283   2.187   2.024   2.179   2.157   2.173   2.330   2.516   2.368   2.442   2.318   2.444   2.402   2.407   2.319   2.199   2.001

   Height   Standard deviation at grid points for the v component:
   182.50    1.867   1.867   1.867   1.867   1.867   1.867   1.867   1.867   1.867   1.867   1.867   1.867   1.867   1.867   1.867   1.867   1.867
   172.19    1.867   1.867   1.867   1.867   1.867   1.867   1.867   1.867   1.867   1.867   1.867   1.867   1.867   1.867   1.867   1.867   1.867
   161.88    1.867   1.867   1.867   1.867   1.867   1.867   1.867   1.867   1.867   1.867   1.867   1.867   1.867   1.867   1.867   1.867   1.867
   151.56    1.867   1.867   1.867   1.867   1.867   1.867   1.867   1.867   1.867   1.867   1.867   1.867   1.867   1.867   1.867   1.867   1.867
   141.25    1.867   1.867   1.867   1.867   1.867   1.867   1.867   1.867   1.867   1.867   1.867   1.867   1.867   1.867   1.867   1.867   1.867
   130.94    1.867   1.867   1.867   1.867   1.867   1.867   1.867   1.867   1.867   1.867   1.867   1.867   1.867   1.867   1.867   1.867   1.867
   120.62    1.867   1.867   1.867   1.867   1.867   1.867   1.867   1.867   1.867   1.867   1.867   1.867   1.867   1.867   1.867   1.867   1.867
   110.31    1.867   1.867   1.867   1.867   1.867   1.867   1.867   1.867   1.867   1.867   1.867   1.867   1.867   1.867   1.867   1.867   1.867
   100.00    1.867   1.867   1.867   1.867   1.867   1.867   1.867   1.867   1.867   1.867   1.867   1.867   1.867   1.867   1.867   1.867   1.867
    89.69    1.867   1.867   1.867   1.867   1.867   1.867   1.867   1.867   1.867   1.867   1.867   1.867   1.867   1.867   1.867   1.867   1.867
    79.38    1.867   1.867   1.867   1.867   1.867   1.867   1.867   1.867   1.867   1.867   1.867   1.867   1.867   1.867   1.867   1.867   1.867
    69.06    1.867   1.867   1.867   1.867   1.867   1.867   1.867   1.867   1.867   1.867   1.867   1.867   1.867   1.867   1.867   1.867   1.867
    58.75    1.867   1.867   1.867   1.867   1.867   1.867   1.867   1.867   1.867   1.867   1.867   1.867   1.867   1.867   1.867   1.867   1.867
    48.44    1.867   1.867   1.867   1.867   1.867   1.867   1.867   1.867   1.867   1.867   1.867   1.867   1.867   1.867   1.867   1.867   1.867
    38.12    1.867   1.867   1.867   1.867   1.867   1.867   1.867   1.867   1.867   1.867   1.867   1.867   1.867   1.867   1.867   1.867   1.867
    27.81    1.867   1.867   1.867   1.867   1.867   1.867   1.867   1.867   1.867   1.867   1.867   1.867   1.867   1.867   1.867   1.867   1.867
    17.50    1.867   1.867   1.867   1.867   1.867   1.867   1.867   1.867   1.867   1.867   1.867   1.867   1.867   1.867   1.867   1.867   1.867

   Height   Standard deviation at grid points for the w component:
   182.50    1.165   1.165   1.165   1.165   1.165   1.165   1.165   1.165   1.165   1.165   1.165   1.165   1.165   1.165   1.165   1.165   1.165
   172.19    1.165   1.165   1.165   1.165   1.165   1.165   1.165   1.165   1.165   1.165   1.165   1.165   1.165   1.165   1.165   1.165   1.165
   161.88    1.165   1.165   1.165   1.165   1.165   1.165   1.165   1.165   1.165   1.165   1.165   1.165   1.165   1.165   1.165   1.165   1.165
   151.56    1.165   1.165   1.165   1.165   1.165   1.165   1.165   1.165   1.165   1.165   1.165   1.165   1.165   1.165   1.165   1.165   1.165
   141.25    1.165   1.165   1.165   1.165   1.165   1.165   1.165   1.165   1.165   1.165   1.165   1.165   1.165   1.165   1.165   1.165   1.165
   130.94    1.165   1.165   1.165   1.165   1.165   1.165   1.165   1.165   1.165   1.165   1.165   1.165   1.165   1.165   1.165   1.165   1.165
   120.62    1.165   1.165   1.165   1.165   1.165   1.165   1.165   1.165   1.165   1.165   1.165   1.165   1.165   1.165   1.165   1.165   1.165
   110.31    1.165   1.165   1.165   1.165   1.165   1.165   1.165   1.165   1.165   1.165   1.165   1.165   1.165   1.165   1.165   1.165   1.165
   100.00    1.165   1.165   1.165   1.165   1.165   1.165   1.165   1.165   1.165   1.165   1.165   1.165   1.165   1.165   1.165   1.165   1.165
    89.69    1.165   1.165   1.165   1.165   1.165   1.165   1.165   1.165   1.165   1.165   1.165   1.165   1.165   1.165   1.165   1.165   1.165
    79.38    1.165   1.165   1.165   1.165   1.165   1.165   1.165   1.165   1.165   1.165   1.165   1.165   1.165   1.165   1.165   1.165   1.165
    69.06    1.165   1.165   1.165   1.165   1.165   1.165   1.165   1.165   1.165   1.165   1.165   1.165   1.165   1.165   1.165   1.165   1.165
    58.75    1.165   1.165   1.165   1.165   1.165   1.165   1.165   1.165   1.165   1.165   1.165   1.165   1.165   1.165   1.165   1.165   1.165
    48.44    1.165   1.165   1.165   1.165   1.165   1.165   1.165   1.165   1.165   1.165   1.165   1.165   1.165   1.165   1.165   1.165   1.165
    38.12    1.165   1.165   1.165   1.165   1.165   1.165   1.165   1.165   1.165   1.165   1.165   1.165   1.165   1.165   1.165   1.165   1.165
    27.81    1.165   1.165   1.165   1.165   1.165   1.165   1.165   1.165   1.165   1.165   1.165   1.165   1.165   1.165   1.165   1.165   1.165
    17.50    1.165   1.165   1.165   1.165   1.165   1.165   1.165   1.165   1.165   1.165   1.165   1.165   1.165   1.165   1.165   1.165   1.165

   Mean standard deviation across all grid points:
      u component:    2.268 m/s
      v component:    1.867 m/s
      w component:    1.165 m/s


U-component (X) statistics from the hub grid point:

   Mean =  12.4000 m/s
   TI   =  17.0757 %


Normalizing Parameters for Binary Data (approximate statistics):

   UBar  =  12.4000 m/s
   TI(u) =  17.0757 %
   TI(v) =  15.0590 %
   TI(w) =   9.3963 %

   Height Offset =   0.0000 m
   Grid Base     =  17.5000 m

Nyquist frequency of turbulent wind field =        10.000 Hz


Processing complete.  5.375 CPU seconds used.
