
This summary file was generated by TurbSim (v1.06.00, 21-Sep-2012) on 21-Dec-2025 at 12:21:00.


Runtime Options:

   2567890  Random seed #1
    RANLUX  Type of random number generator
         F  Output binary HH turbulence parameters?
         F  Output formatted turbulence parameters?
         F  Output AeroDyn HH files?
         F  Output AeroDyn FF files?
         T  Output BLADED FF files?
         T  Output tower data?
         F  Output formatted FF files?
         F  Output coherent turbulence time step file?
         T  Clockwise rotation when looking downwind?
 0 -  NONE  IEC turbulence models scaled to exact specified standard deviation


Turbine/Model Specifications:

        17  Vertical grid-point matrix dimension
        17  Horizontal grid-point matrix dimension
     0.050  Time step [seconds]
    60.000  Analysis time [seconds]
   660.000  Usable output time [seconds]
   100.000  Hub height [m]
   165.000  Grid height [m]
   165.000  Grid width [m]
     0.000  Vertical flow angle [degrees]
     0.000  Horizontal flow angle [degrees]


Meteorological Boundary Conditions:

    IECKAI  IEC Kaimal spectral model
         1  IEC standard: IEC 61400-1 Ed. 3: 2005
         A  IEC turbulence characteristic
      2ETM  IEC Extreme Turbulence Model
     2.000  IEC Extreme Turbulence Model (ETM) "c" parameter [m/s]
       IEC  Wind profile type
   100.000  Reference height [m]
    21.000  Reference wind speed [m/s]
       N/A  Jet height [m]
     0.200  Power law exponent
     0.030  Surface roughness length [m]


You have requested that the following file(s) be generated:

   21ms_2A.wnd (AeroDyn/BLADED full-field wnd file)
   21ms_2A.twr (Binary tower twr file)


Turbulence Simulation Scaling Parameter Summary:

   Turbulence model used                            =  IEC Kaimal
   Turbulence characteristic                        =  2A
   IEC turbulence type                              =  Extreme Turbulence Model
   Reference wind speed average over 10 minutes     =   42.500 m/s
   Annual wind speed average at hub height          =    8.500 m/s
   IEC standard                                     =  IEC 61400-1 Ed. 3: 2005
   Mean wind speed at hub height                    =   21.000 m/s
   Expected value of turbulence intensity at 15 m/s =   16.000%
   Characteristic value of standard deviation       =    4.286 m/s
   Turbulence scale                                 =   42.000 m
   u-component integral scale                       =  340.200 m
   Coherency scale                                  =  340.200 m
   Characteristic value of hub turbulence intensity =   20.408%
   Gradient Richardson number                       =    0.000

   Wind profile type                                =  Power law on rotor disk, logarithmic elsewhere
   Power law exponent                               =    0.200
   Mean shear across rotor disk                     =    0.054 (m/s)/m
   Assumed rotor diameter                           =  165.000 m
   Surface roughness length                         =    0.030 m

   Number of time steps in the FFT                  =    13376
   Number of time steps output                      =    13358


Mean Flow Angles:

   Vertical   =   0.0 degrees
   Horizontal =   0.0 degrees

Mean Wind Speed Profile:

   Height    Wind Speed   Horizontal Angle  U-comp (X)   V-comp (Y)   W-comp (Z)
     (m)        (m/s)         (degrees)       (m/s)        (m/s)        (m/s)   
   ------    ----------   ----------------  ----------   ----------   ----------
    182.5       23.68            0.00         23.68         0.00         0.00
    172.2       23.41            0.00         23.41         0.00         0.00
    161.9       23.12            0.00         23.12         0.00         0.00
    151.6       22.82            0.00         22.82         0.00         0.00
    141.2       22.50            0.00         22.50         0.00         0.00
    130.9       22.16            0.00         22.16         0.00         0.00
    120.6       21.80            0.00         21.80         0.00         0.00
    110.3       21.42            0.00         21.42         0.00         0.00
    100.0       21.00            0.00         21.00         0.00         0.00
     89.7       20.55            0.00         20.55         0.00         0.00
     79.4       20.05            0.00         20.05         0.00         0.00
     69.1       19.50            0.00         19.50         0.00         0.00
     58.8       18.88            0.00         18.88         0.00         0.00
     48.4       18.17            0.00         18.17         0.00         0.00
     38.1       17.32            0.00         17.32         0.00         0.00
     27.8       16.26            0.00         16.26         0.00         0.00
     17.5       14.82            0.00         14.82         0.00         0.00
      7.2       14.18            0.00         14.18         0.00         0.00


Harvested Random Seeds after Generation of the Random Numbers:

     54064120 K1
            0 K2


Hub-Height Simulated Turbulence Statistical Summary:

   Type of Wind        Min (m/s)   Mean (m/s)    Max (m/s)  Sigma (m/s)       TI (%)
   ----------------    ---------   ----------    ---------  -----------       ------
   Longitudinal (u)         8.75        21.00        33.52        3.724       17.731
   Lateral (v)            -14.04         0.00        11.85        3.364       16.021
   Vertical (w)            -7.60         0.00         7.54        2.080        9.905
   U component              8.75        21.00        33.52        3.724       17.731
   V component            -14.04         0.00        11.85        3.364       16.021
   W component             -7.60         0.00         7.54        2.080        9.905
   Horizontal (U&V)         8.99        21.27        33.70        3.691       17.350
   Total                    9.17        21.38        33.74        3.686       17.246

                       Min Reynolds     Mean Reynolds    Max Reynolds    Correlation
   Product             Stress (m/s)^2   Stress (m/s)^2   Stress (m/s)^2  Coefficient
   ----------------    --------------   --------------   --------------  -----------
   u'w'                    -60.670            -0.322            47.768        -0.042
   u'v'                    -59.599             0.108            82.506         0.009
   v'w'                    -42.175             0.301            42.871         0.043


   Friction Velocity (Ustar)  =      0.567 m/s
   Maximum Instantaneous TKE  =    107.933 (m/s)^2
   Maximum Instantaneous CTKE =     43.472 (m/s)^2


Grid Point Variance Summary:

   Y-coord  -82.50  -72.19  -61.88  -51.56  -41.25  -30.94  -20.62  -10.31    0.00   10.31   20.62   30.94   41.25   51.56   61.88   72.19   82.50

   Height   Standard deviation at grid points for the u component:
   182.50    4.426   3.896   4.030   4.147   4.083   3.862   4.067   4.031   3.812   3.801   3.766   3.736   4.013   4.253   4.139   4.053   4.109
   172.19    4.172   4.167   4.081   4.174   4.035   4.012   3.918   4.038   3.734   3.656   3.831   3.699   3.724   3.847   4.121   4.275   4.143
   161.88    4.297   4.265   4.054   4.101   4.302   3.998   3.826   4.003   3.789   3.711   3.695   3.787   3.834   3.869   4.017   4.278   4.286
   151.56    4.338   4.065   4.302   4.183   4.305   3.904   3.891   3.945   3.805   3.688   3.697   3.849   3.993   4.033   4.147   4.173   4.365
   141.25    4.318   4.187   4.026   4.003   4.084   3.983   3.750   3.751   3.656   3.672   3.792   4.043   3.954   4.126   4.095   4.266   4.286
   130.94    4.334   4.077   4.191   4.157   3.935   3.801   3.791   3.741   3.657   3.611   3.636   3.812   3.944   4.066   4.111   4.188   4.137
   120.62    4.242   4.089   4.143   4.115   3.737   3.867   3.838   3.861   3.753   3.576   3.697   4.002   4.250   4.135   4.102   4.238   4.233
   110.31    4.350   4.168   4.161   3.862   3.672   3.911   3.919   3.749   3.574   3.697   3.811   3.955   4.034   4.263   4.404   4.305   4.395
   100.00    4.189   4.051   4.254   4.034   4.050   3.778   3.686   3.445   3.724   3.814   3.881   3.906   3.976   4.168   4.218   4.184   4.422
    89.69    3.962   3.905   4.121   4.051   3.994   3.753   3.943   3.718   3.747   3.605   3.879   3.965   3.832   4.070   4.116   3.856   3.865
    79.38    4.138   4.064   4.043   4.038   3.751   3.690   3.800   3.641   3.724   3.848   3.708   3.870   3.768   3.957   3.848   3.823   3.837
    69.06    4.056   4.025   3.929   3.806   3.594   3.673   3.798   4.084   4.101   4.037   3.904   3.922   3.755   4.033   3.811   3.856   3.851
    58.75    3.988   4.137   3.808   3.903   3.923   3.930   3.969   3.941   4.028   3.958   3.816   3.678   3.610   3.830   3.706   3.708   3.717
    48.44    4.087   3.796   3.764   3.758   3.997   4.043   3.922   3.847   3.861   3.911   3.950   3.766   3.708   3.795   3.911   3.813   3.718
    38.12    3.998   3.870   3.742   3.973   4.105   3.890   3.650   3.701   3.741   3.856   3.976   3.797   3.699   3.871   3.891   3.865   3.886
    27.81    4.001   4.107   4.004   3.980   4.063   3.709   3.896   3.773   3.744   3.866   4.049   3.804   3.937   3.927   3.732   3.655   3.807
    17.50    4.163   3.816   3.928   3.826   3.819   3.706   3.597   3.805   3.833   3.708   3.951   3.988   3.979   3.982   3.786   3.902   3.660

   Height   Standard deviation at grid points for the v component:
   182.50    3.364   3.364   3.364   3.364   3.364   3.364   3.364   3.364   3.364   3.364   3.364   3.364   3.364   3.364   3.364   3.364   3.364
   172.19    3.364   3.364   3.364   3.364   3.364   3.364   3.364   3.364   3.364   3.364   3.364   3.364   3.364   3.364   3.364   3.364   3.364
   161.88    3.364   3.364   3.364   3.364   3.364   3.364   3.364   3.364   3.364   3.364   3.364   3.364   3.364   3.364   3.364   3.364   3.364
   151.56    3.364   3.364   3.364   3.364   3.364   3.364   3.364   3.364   3.364   3.364   3.364   3.364   3.364   3.364   3.364   3.364   3.364
   141.25    3.364   3.364   3.364   3.364   3.364   3.364   3.364   3.364   3.364   3.364   3.364   3.364   3.364   3.364   3.364   3.364   3.364
   130.94    3.364   3.364   3.364   3.364   3.364   3.364   3.364   3.364   3.364   3.364   3.364   3.364   3.364   3.364   3.364   3.364   3.364
   120.62    3.364   3.364   3.364   3.364   3.364   3.364   3.364   3.364   3.364   3.364   3.364   3.364   3.364   3.364   3.364   3.364   3.364
   110.31    3.364   3.364   3.364   3.364   3.364   3.364   3.364   3.364   3.364   3.364   3.364   3.364   3.364   3.364   3.364   3.364   3.364
   100.00    3.364   3.364   3.364   3.364   3.364   3.364   3.364   3.364   3.364   3.364   3.364   3.364   3.364   3.364   3.364   3.364   3.364
    89.69    3.364   3.364   3.364   3.364   3.364   3.364   3.364   3.364   3.364   3.364   3.364   3.364   3.364   3.364   3.364   3.364   3.364
    79.38    3.364   3.364   3.364   3.364   3.364   3.364   3.364   3.364   3.364   3.364   3.364   3.364   3.364   3.364   3.364   3.364   3.364
    69.06    3.364   3.364   3.364   3.364   3.364   3.364   3.364   3.364   3.364   3.364   3.364   3.364   3.364   3.364   3.364   3.364   3.364
    58.75    3.364   3.364   3.364   3.364   3.364   3.364   3.364   3.364   3.364   3.364   3.364   3.364   3.364   3.364   3.364   3.364   3.364
    48.44    3.364   3.364   3.364   3.364   3.364   3.364   3.364   3.364   3.364   3.364   3.364   3.364   3.364   3.364   3.364   3.364   3.364
    38.12    3.364   3.364   3.364   3.364   3.364   3.364   3.364   3.364   3.364   3.364   3.364   3.364   3.364   3.364   3.364   3.364   3.364
    27.81    3.364   3.364   3.364   3.364   3.364   3.364   3.364   3.364   3.364   3.364   3.364   3.364   3.364   3.364   3.364   3.364   3.364
    17.50    3.364   3.364   3.364   3.364   3.364   3.364   3.364   3.364   3.364   3.364   3.364   3.364   3.364   3.364   3.364   3.364   3.364

   Height   Standard deviation at grid points for the w component:
   182.50    2.080   2.080   2.080   2.080   2.080   2.080   2.080   2.080   2.080   2.080   2.080   2.080   2.080   2.080   2.080   2.080   2.080
   172.19    2.080   2.080   2.080   2.080   2.080   2.080   2.080   2.080   2.080   2.080   2.080   2.080   2.080   2.080   2.080   2.080   2.080
   161.88    2.080   2.080   2.080   2.080   2.080   2.080   2.080   2.080   2.080   2.080   2.080   2.080   2.080   2.080   2.080   2.080   2.080
   151.56    2.080   2.080   2.080   2.080   2.080   2.080   2.080   2.080   2.080   2.080   2.080   2.080   2.080   2.080   2.080   2.080   2.080
   141.25    2.080   2.080   2.080   2.080   2.080   2.080   2.080   2.080   2.080   2.080   2.080   2.080   2.080   2.080   2.080   2.080   2.080
   130.94    2.080   2.080   2.080   2.080   2.080   2.080   2.080   2.080   2.080   2.080   2.080   2.080   2.080   2.080   2.080   2.080   2.080
   120.62    2.080   2.080   2.080   2.080   2.080   2.080   2.080   2.080   2.080   2.080   2.080   2.080   2.080   2.080   2.080   2.080   2.080
   110.31    2.080   2.080   2.080   2.080   2.080   2.080   2.080   2.080   2.080   2.080   2.080   2.080   2.080   2.080   2.080   2.080   2.080
   100.00    2.080   2.080   2.080   2.080   2.080   2.080   2.080   2.080   2.080   2.080   2.080   2.080   2.080   2.080   2.080   2.080   2.080
    89.69    2.080   2.080   2.080   2.080   2.080   2.080   2.080   2.080   2.080   2.080   2.080   2.080   2.080   2.080   2.080   2.080   2.080
    79.38    2.080   2.080   2.080   2.080   2.080   2.080   2.080   2.080   2.080   2.080   2.080   2.080   2.080   2.080   2.080   2.080   2.080
    69.06    2.080   2.080   2.080   2.080   2.080   2.080   2.080   2.080   2.080   2.080   2.080   2.080   2.080   2.080   2.080   2.080   2.080
    58.75    2.080   2.080   2.080   2.080   2.080   2.080   2.080   2.080   2.080   2.080   2.080   2.080   2.080   2.080   2.080   2.080   2.080
    48.44    2.080   2.080   2.080   2.080   2.080   2.080   2.080   2.080   2.080   2.080   2.080   2.080   2.080   2.080   2.080   2.080   2.080
    38.12    2.080   2.080   2.080   2.080   2.080   2.080   2.080   2.080   2.080   2.080   2.080   2.080   2.080   2.080   2.080   2.080   2.080
    27.81    2.080   2.080   2.080   2.080   2.080   2.080   2.080   2.080   2.080   2.080   2.080   2.080   2.080   2.080   2.080   2.080   2.080
    17.50    2.080   2.080   2.080   2.080   2.080   2.080   2.080   2.080   2.080   2.080   2.080   2.080   2.080   2.080   2.080   2.080   2.080

   Mean standard deviation across all grid points:
      u component:    3.938 m/s
      v component:    3.364 m/s
      w component:    2.080 m/s


U-component (X) statistics from the hub grid point:

   Mean =  21.0000 m/s
   TI   =  17.7312 %


Normalizing Parameters for Binary Data (approximate statistics):

   UBar  =  21.0000 m/s
   TI(u) =  17.7312 %
   TI(v) =  16.0211 %
   TI(w) =   9.9054 %

   Height Offset =   0.0000 m
   Grid Base     =  17.5000 m

Nyquist frequency of turbulent wind field =        10.000 Hz


Processing complete.  5.9844 CPU seconds used.
