
This summary file was generated by TurbSim (v1.06.00, 21-Sep-2012) on 18-Jan-2026 at 23:12:14.


Runtime Options:

       450  Random seed #1
    RANLUX  Type of random number generator
         F  Output binary HH turbulence parameters?
         F  Output formatted turbulence parameters?
         F  Output AeroDyn HH files?
         F  Output AeroDyn FF files?
         T  Output BLADED FF files?
         T  Output tower data?
         F  Output formatted FF files?
         F  Output coherent turbulence time step file?
         T  Clockwise rotation when looking downwind?
 0 -  NONE  IEC turbulence models scaled to exact specified standard deviation


Turbine/Model Specifications:

        17  Vertical grid-point matrix dimension
        17  Horizontal grid-point matrix dimension
     0.050  Time step [seconds]
    60.000  Analysis time [seconds]
   660.000  Usable output time [seconds]
   100.000  Hub height [m]
   165.000  Grid height [m]
   165.000  Grid width [m]
     0.000  Vertical flow angle [degrees]
     0.000  Horizontal flow angle [degrees]


Meteorological Boundary Conditions:

    IECKAI  IEC Kaimal spectral model
         1  IEC standard: IEC 61400-1 Ed. 3: 2005
         A  IEC turbulence characteristic
       NTM  IEC Normal Turbulence Model
       N/A  IEC Extreme Turbulence Model (ETM) "c" parameter [m/s]
       IEC  Wind profile type
   100.000  Reference height [m]
    12.400  Reference wind speed [m/s]
       N/A  Jet height [m]
     0.200  Power law exponent
     0.030  Surface roughness length [m]


You have requested that the following file(s) be generated:

   12ms_2A.wnd (AeroDyn/BLADED full-field wnd file)
   12ms_2A.twr (Binary tower twr file)


Turbulence Simulation Scaling Parameter Summary:

   Turbulence model used                            =  IEC Kaimal
   Turbulence characteristic                        =  A
   IEC turbulence type                              =  Normal Turbulence Model
   IEC standard                                     =  IEC 61400-1 Ed. 3: 2005
   Mean wind speed at hub height                    =   12.400 m/s
   Expected value of turbulence intensity at 15 m/s =   16.000%
   Characteristic value of standard deviation       =    2.384 m/s
   Turbulence scale                                 =   42.000 m
   u-component integral scale                       =  340.200 m
   Coherency scale                                  =  340.200 m
   Characteristic value of hub turbulence intensity =   19.226%
   Gradient Richardson number                       =    0.000

   Wind profile type                                =  Power law on rotor disk, logarithmic elsewhere
   Power law exponent                               =    0.200
   Mean shear across rotor disk                     =    0.032 (m/s)/m
   Assumed rotor diameter                           =  165.000 m
   Surface roughness length                         =    0.030 m

   Number of time steps in the FFT                  =    13500
   Number of time steps output                      =    13467


Mean Flow Angles:

   Vertical   =   0.0 degrees
   Horizontal =   0.0 degrees

Mean Wind Speed Profile:

   Height    Wind Speed   Horizontal Angle  U-comp (X)   V-comp (Y)   W-comp (Z)
     (m)        (m/s)         (degrees)       (m/s)        (m/s)        (m/s)   
   ------    ----------   ----------------  ----------   ----------   ----------
    182.5       13.99            0.00         13.99         0.00         0.00
    172.2       13.82            0.00         13.82         0.00         0.00
    161.9       13.65            0.00         13.65         0.00         0.00
    151.6       13.48            0.00         13.48         0.00         0.00
    141.2       13.29            0.00         13.29         0.00         0.00
    130.9       13.09            0.00         13.09         0.00         0.00
    120.6       12.87            0.00         12.87         0.00         0.00
    110.3       12.65            0.00         12.65         0.00         0.00
    100.0       12.40            0.00         12.40         0.00         0.00
     89.7       12.13            0.00         12.13         0.00         0.00
     79.4       11.84            0.00         11.84         0.00         0.00
     69.1       11.52            0.00         11.52         0.00         0.00
     58.8       11.15            0.00         11.15         0.00         0.00
     48.4       10.73            0.00         10.73         0.00         0.00
     38.1       10.23            0.00         10.23         0.00         0.00
     27.8        9.60            0.00          9.60         0.00         0.00
     17.5        8.75            0.00          8.75         0.00         0.00
      7.2        8.38            0.00          8.38         0.00         0.00


Harvested Random Seeds after Generation of the Random Numbers:

     54565213 K1
            0 K2


Hub-Height Simulated Turbulence Statistical Summary:

   Type of Wind        Min (m/s)   Mean (m/s)    Max (m/s)  Sigma (m/s)       TI (%)
   ----------------    ---------   ----------    ---------  -----------       ------
   Longitudinal (u)         4.72        12.40        19.42        2.435       19.636
   Lateral (v)             -5.95         0.00         6.73        1.867       15.059
   Vertical (w)            -4.93         0.00         3.73        1.165        9.396
   U component              4.72        12.40        19.42        2.435       19.636
   V component             -5.95         0.00         6.73        1.867       15.059
   W component             -4.93         0.00         3.73        1.165        9.396
   Horizontal (U&V)         4.74        12.54        19.50        2.419       19.288
   Total                    4.90        12.60        19.51        2.414       19.162

                       Min Reynolds     Mean Reynolds    Max Reynolds    Correlation
   Product             Stress (m/s)^2   Stress (m/s)^2   Stress (m/s)^2  Coefficient
   ----------------    --------------   --------------   --------------  -----------
   u'w'                    -20.212            -0.313            19.875        -0.110
   u'v'                    -25.832             0.149            23.234         0.033
   v'w'                    -15.443             0.179            14.863         0.082


   Friction Velocity (Ustar)  =      0.559 m/s
   Maximum Instantaneous TKE  =     30.904 (m/s)^2
   Maximum Instantaneous CTKE =     13.460 (m/s)^2


Grid Point Variance Summary:

   Y-coord  -82.50  -72.19  -61.88  -51.56  -41.25  -30.94  -20.62  -10.31    0.00   10.31   20.62   30.94   41.25   51.56   61.88   72.19   82.50

   Height   Standard deviation at grid points for the u component:
   182.50    2.179   2.138   2.064   2.175   2.141   2.041   2.057   2.073   2.154   2.251   2.443   2.433   2.472   2.359   2.404   2.504   2.587
   172.19    2.167   2.218   2.098   2.287   2.178   2.093   2.134   2.085   2.265   2.253   2.339   2.444   2.657   2.645   2.483   2.562   2.502
   161.88    1.987   2.136   1.998   2.102   2.140   2.234   1.955   2.142   1.979   2.156   2.243   2.480   2.569   2.559   2.595   2.541   2.432
   151.56    2.159   2.024   2.178   2.110   2.201   2.148   2.152   2.074   2.148   2.295   2.352   2.523   2.534   2.611   2.368   2.317   2.196
   141.25    2.130   2.113   2.116   2.113   2.350   2.264   2.190   2.132   2.223   2.307   2.367   2.459   2.555   2.504   2.277   2.145   2.227
   130.94    2.190   2.331   2.258   2.177   2.251   2.222   2.239   2.123   2.175   2.194   2.410   2.575   2.490   2.429   2.181   2.202   2.124
   120.62    2.179   2.211   2.222   2.197   2.103   2.213   2.183   2.106   2.165   2.273   2.467   2.420   2.369   2.495   2.213   2.261   2.079
   110.31    2.160   2.247   2.166   2.238   2.158   2.058   2.134   2.277   2.374   2.367   2.369   2.408   2.396   2.472   2.321   2.140   2.103
   100.00    2.362   2.427   2.304   2.335   2.119   2.214   2.268   2.443   2.435   2.268   2.272   2.288   2.230   2.245   2.284   2.317   2.188
    89.69    2.358   2.480   2.561   2.345   2.534   2.476   2.457   2.537   2.462   2.305   2.268   2.325   2.208   2.313   2.361   2.370   2.210
    79.38    2.418   2.464   2.509   2.365   2.566   2.485   2.570   2.495   2.364   2.402   2.283   2.148   2.181   2.249   2.399   2.353   2.239
    69.06    2.387   2.352   2.307   2.322   2.546   2.610   2.527   2.289   2.453   2.437   2.342   2.319   2.472   2.265   2.073   2.190   2.360
    58.75    2.381   2.199   2.186   2.422   2.553   2.501   2.396   2.419   2.397   2.389   2.322   2.297   2.296   2.396   2.370   2.293   2.334
    48.44    2.292   2.259   2.218   2.340   2.327   2.418   2.501   2.336   2.358   2.346   2.361   2.264   2.256   2.389   2.456   2.458   2.337
    38.12    2.279   2.201   2.369   2.268   2.337   2.394   2.227   2.368   2.342   2.456   2.267   2.306   2.213   2.394   2.326   2.580   2.522
    27.81    2.207   2.138   2.210   2.308   2.379   2.407   2.325   2.276   2.210   2.177   2.380   2.387   2.496   2.490   2.548   2.457   2.629
    17.50    2.283   2.299   2.319   2.413   2.395   2.297   2.383   2.231   2.160   2.276   2.220   2.265   2.469   2.374   2.437   2.462   2.475

   Height   Standard deviation at grid points for the v component:
   182.50    1.867   1.867   1.867   1.867   1.867   1.867   1.867   1.867   1.867   1.867   1.867   1.867   1.867   1.867   1.867   1.867   1.867
   172.19    1.867   1.867   1.867   1.867   1.867   1.867   1.867   1.867   1.867   1.867   1.867   1.867   1.867   1.867   1.867   1.867   1.867
   161.88    1.867   1.867   1.867   1.867   1.867   1.867   1.867   1.867   1.867   1.867   1.867   1.867   1.867   1.867   1.867   1.867   1.867
   151.56    1.867   1.867   1.867   1.867   1.867   1.867   1.867   1.867   1.867   1.867   1.867   1.867   1.867   1.867   1.867   1.867   1.867
   141.25    1.867   1.867   1.867   1.867   1.867   1.867   1.867   1.867   1.867   1.867   1.867   1.867   1.867   1.867   1.867   1.867   1.867
   130.94    1.867   1.867   1.867   1.867   1.867   1.867   1.867   1.867   1.867   1.867   1.867   1.867   1.867   1.867   1.867   1.867   1.867
   120.62    1.867   1.867   1.867   1.867   1.867   1.867   1.867   1.867   1.867   1.867   1.867   1.867   1.867   1.867   1.867   1.867   1.867
   110.31    1.867   1.867   1.867   1.867   1.867   1.867   1.867   1.867   1.867   1.867   1.867   1.867   1.867   1.867   1.867   1.867   1.867
   100.00    1.867   1.867   1.867   1.867   1.867   1.867   1.867   1.867   1.867   1.867   1.867   1.867   1.867   1.867   1.867   1.867   1.867
    89.69    1.867   1.867   1.867   1.867   1.867   1.867   1.867   1.867   1.867   1.867   1.867   1.867   1.867   1.867   1.867   1.867   1.867
    79.38    1.867   1.867   1.867   1.867   1.867   1.867   1.867   1.867   1.867   1.867   1.867   1.867   1.867   1.867   1.867   1.867   1.867
    69.06    1.867   1.867   1.867   1.867   1.867   1.867   1.867   1.867   1.867   1.867   1.867   1.867   1.867   1.867   1.867   1.867   1.867
    58.75    1.867   1.867   1.867   1.867   1.867   1.867   1.867   1.867   1.867   1.867   1.867   1.867   1.867   1.867   1.867   1.867   1.867
    48.44    1.867   1.867   1.867   1.867   1.867   1.867   1.867   1.867   1.867   1.867   1.867   1.867   1.867   1.867   1.867   1.867   1.867
    38.12    1.867   1.867   1.867   1.867   1.867   1.867   1.867   1.867   1.867   1.867   1.867   1.867   1.867   1.867   1.867   1.867   1.867
    27.81    1.867   1.867   1.867   1.867   1.867   1.867   1.867   1.867   1.867   1.867   1.867   1.867   1.867   1.867   1.867   1.867   1.867
    17.50    1.867   1.867   1.867   1.867   1.867   1.867   1.867   1.867   1.867   1.867   1.867   1.867   1.867   1.867   1.867   1.867   1.867

   Height   Standard deviation at grid points for the w component:
   182.50    1.165   1.165   1.165   1.165   1.165   1.165   1.165   1.165   1.165   1.165   1.165   1.165   1.165   1.165   1.165   1.165   1.165
   172.19    1.165   1.165   1.165   1.165   1.165   1.165   1.165   1.165   1.165   1.165   1.165   1.165   1.165   1.165   1.165   1.165   1.165
   161.88    1.165   1.165   1.165   1.165   1.165   1.165   1.165   1.165   1.165   1.165   1.165   1.165   1.165   1.165   1.165   1.165   1.165
   151.56    1.165   1.165   1.165   1.165   1.165   1.165   1.165   1.165   1.165   1.165   1.165   1.165   1.165   1.165   1.165   1.165   1.165
   141.25    1.165   1.165   1.165   1.165   1.165   1.165   1.165   1.165   1.165   1.165   1.165   1.165   1.165   1.165   1.165   1.165   1.165
   130.94    1.165   1.165   1.165   1.165   1.165   1.165   1.165   1.165   1.165   1.165   1.165   1.165   1.165   1.165   1.165   1.165   1.165
   120.62    1.165   1.165   1.165   1.165   1.165   1.165   1.165   1.165   1.165   1.165   1.165   1.165   1.165   1.165   1.165   1.165   1.165
   110.31    1.165   1.165   1.165   1.165   1.165   1.165   1.165   1.165   1.165   1.165   1.165   1.165   1.165   1.165   1.165   1.165   1.165
   100.00    1.165   1.165   1.165   1.165   1.165   1.165   1.165   1.165   1.165   1.165   1.165   1.165   1.165   1.165   1.165   1.165   1.165
    89.69    1.165   1.165   1.165   1.165   1.165   1.165   1.165   1.165   1.165   1.165   1.165   1.165   1.165   1.165   1.165   1.165   1.165
    79.38    1.165   1.165   1.165   1.165   1.165   1.165   1.165   1.165   1.165   1.165   1.165   1.165   1.165   1.165   1.165   1.165   1.165
    69.06    1.165   1.165   1.165   1.165   1.165   1.165   1.165   1.165   1.165   1.165   1.165   1.165   1.165   1.165   1.165   1.165   1.165
    58.75    1.165   1.165   1.165   1.165   1.165   1.165   1.165   1.165   1.165   1.165   1.165   1.165   1.165   1.165   1.165   1.165   1.165
    48.44    1.165   1.165   1.165   1.165   1.165   1.165   1.165   1.165   1.165   1.165   1.165   1.165   1.165   1.165   1.165   1.165   1.165
    38.12    1.165   1.165   1.165   1.165   1.165   1.165   1.165   1.165   1.165   1.165   1.165   1.165   1.165   1.165   1.165   1.165   1.165
    27.81    1.165   1.165   1.165   1.165   1.165   1.165   1.165   1.165   1.165   1.165   1.165   1.165   1.165   1.165   1.165   1.165   1.165
    17.50    1.165   1.165   1.165   1.165   1.165   1.165   1.165   1.165   1.165   1.165   1.165   1.165   1.165   1.165   1.165   1.165   1.165

   Mean standard deviation across all grid points:
      u component:    2.312 m/s
      v component:    1.867 m/s
      w component:    1.165 m/s


U-component (X) statistics from the hub grid point:

   Mean =  12.4000 m/s
   TI   =  19.6362 %


Normalizing Parameters for Binary Data (approximate statistics):

   UBar  =  12.4000 m/s
   TI(u) =  19.6362 %
   TI(v) =  15.0590 %
   TI(w) =   9.3963 %

   Height Offset =   0.0000 m
   Grid Base     =  17.5000 m

Nyquist frequency of turbulent wind field =        10.000 Hz


Processing complete.  5.375 CPU seconds used.
