
This summary file was generated by TurbSim (v1.06.00, 21-Sep-2012) on 18-Jan-2026 at 23:15:36.


Runtime Options:

       600  Random seed #1
    RANLUX  Type of random number generator
         F  Output binary HH turbulence parameters?
         F  Output formatted turbulence parameters?
         F  Output AeroDyn HH files?
         F  Output AeroDyn FF files?
         T  Output BLADED FF files?
         T  Output tower data?
         F  Output formatted FF files?
         F  Output coherent turbulence time step file?
         T  Clockwise rotation when looking downwind?
 0 -  NONE  IEC turbulence models scaled to exact specified standard deviation


Turbine/Model Specifications:

        17  Vertical grid-point matrix dimension
        17  Horizontal grid-point matrix dimension
     0.050  Time step [seconds]
    60.000  Analysis time [seconds]
   660.000  Usable output time [seconds]
   100.000  Hub height [m]
   165.000  Grid height [m]
   165.000  Grid width [m]
     0.000  Vertical flow angle [degrees]
     0.000  Horizontal flow angle [degrees]


Meteorological Boundary Conditions:

    IECKAI  IEC Kaimal spectral model
         1  IEC standard: IEC 61400-1 Ed. 3: 2005
         A  IEC turbulence characteristic
       NTM  IEC Normal Turbulence Model
       N/A  IEC Extreme Turbulence Model (ETM) "c" parameter [m/s]
       IEC  Wind profile type
   100.000  Reference height [m]
    12.400  Reference wind speed [m/s]
       N/A  Jet height [m]
     0.200  Power law exponent
     0.030  Surface roughness length [m]


You have requested that the following file(s) be generated:

   12ms_2A.wnd (AeroDyn/BLADED full-field wnd file)
   12ms_2A.twr (Binary tower twr file)


Turbulence Simulation Scaling Parameter Summary:

   Turbulence model used                            =  IEC Kaimal
   Turbulence characteristic                        =  A
   IEC turbulence type                              =  Normal Turbulence Model
   IEC standard                                     =  IEC 61400-1 Ed. 3: 2005
   Mean wind speed at hub height                    =   12.400 m/s
   Expected value of turbulence intensity at 15 m/s =   16.000%
   Characteristic value of standard deviation       =    2.384 m/s
   Turbulence scale                                 =   42.000 m
   u-component integral scale                       =  340.200 m
   Coherency scale                                  =  340.200 m
   Characteristic value of hub turbulence intensity =   19.226%
   Gradient Richardson number                       =    0.000

   Wind profile type                                =  Power law on rotor disk, logarithmic elsewhere
   Power law exponent                               =    0.200
   Mean shear across rotor disk                     =    0.032 (m/s)/m
   Assumed rotor diameter                           =  165.000 m
   Surface roughness length                         =    0.030 m

   Number of time steps in the FFT                  =    13500
   Number of time steps output                      =    13467


Mean Flow Angles:

   Vertical   =   0.0 degrees
   Horizontal =   0.0 degrees

Mean Wind Speed Profile:

   Height    Wind Speed   Horizontal Angle  U-comp (X)   V-comp (Y)   W-comp (Z)
     (m)        (m/s)         (degrees)       (m/s)        (m/s)        (m/s)   
   ------    ----------   ----------------  ----------   ----------   ----------
    182.5       13.99            0.00         13.99         0.00         0.00
    172.2       13.82            0.00         13.82         0.00         0.00
    161.9       13.65            0.00         13.65         0.00         0.00
    151.6       13.48            0.00         13.48         0.00         0.00
    141.2       13.29            0.00         13.29         0.00         0.00
    130.9       13.09            0.00         13.09         0.00         0.00
    120.6       12.87            0.00         12.87         0.00         0.00
    110.3       12.65            0.00         12.65         0.00         0.00
    100.0       12.40            0.00         12.40         0.00         0.00
     89.7       12.13            0.00         12.13         0.00         0.00
     79.4       11.84            0.00         11.84         0.00         0.00
     69.1       11.52            0.00         11.52         0.00         0.00
     58.8       11.15            0.00         11.15         0.00         0.00
     48.4       10.73            0.00         10.73         0.00         0.00
     38.1       10.23            0.00         10.23         0.00         0.00
     27.8        9.60            0.00          9.60         0.00         0.00
     17.5        8.75            0.00          8.75         0.00         0.00
      7.2        8.38            0.00          8.38         0.00         0.00


Harvested Random Seeds after Generation of the Random Numbers:

     54565213 K1
            0 K2


Hub-Height Simulated Turbulence Statistical Summary:

   Type of Wind        Min (m/s)   Mean (m/s)    Max (m/s)  Sigma (m/s)       TI (%)
   ----------------    ---------   ----------    ---------  -----------       ------
   Longitudinal (u)         5.60        12.40        18.70        1.983       15.989
   Lateral (v)             -5.78         0.00         5.90        1.867       15.059
   Vertical (w)            -4.15         0.00         4.43        1.165        9.396
   U component              5.60        12.40        18.70        1.983       15.989
   V component             -5.78         0.00         5.90        1.867       15.059
   W component             -4.15         0.00         4.43        1.165        9.396
   Horizontal (U&V)         5.89        12.54        19.02        1.969       15.701
   Total                    5.93        12.60        19.03        1.957       15.534

                       Min Reynolds     Mean Reynolds    Max Reynolds    Correlation
   Product             Stress (m/s)^2   Stress (m/s)^2   Stress (m/s)^2  Coefficient
   ----------------    --------------   --------------   --------------  -----------
   u'w'                    -10.324             0.276            19.250         0.120
   u'v'                    -30.733            -0.313            20.319        -0.085
   v'w'                    -13.343             0.026            14.217         0.012


   Friction Velocity (Ustar)  =      0.526 m/s
   Maximum Instantaneous TKE  =     31.138 (m/s)^2
   Maximum Instantaneous CTKE =     15.537 (m/s)^2


Grid Point Variance Summary:

   Y-coord  -82.50  -72.19  -61.88  -51.56  -41.25  -30.94  -20.62  -10.31    0.00   10.31   20.62   30.94   41.25   51.56   61.88   72.19   82.50

   Height   Standard deviation at grid points for the u component:
   182.50    2.331   2.335   2.301   2.347   2.642   2.546   2.487   2.517   2.455   2.497   2.483   2.464   2.357   2.371   2.335   2.396   2.277
   172.19    2.184   2.330   2.495   2.417   2.526   2.517   2.511   2.405   2.488   2.388   2.335   2.260   2.403   2.367   2.370   2.347   2.250
   161.88    2.059   2.269   2.287   2.417   2.363   2.396   2.405   2.218   2.444   2.426   2.259   2.197   2.186   2.297   2.365   2.269   2.168
   151.56    2.145   2.241   2.297   2.278   2.348   2.409   2.358   2.359   2.343   2.462   2.370   2.340   2.399   2.321   2.146   2.251   2.156
   141.25    2.072   2.181   2.181   2.308   2.311   2.244   2.370   2.388   2.322   2.360   2.326   2.415   2.424   2.304   2.298   2.193   2.260
   130.94    1.966   2.137   2.126   2.179   2.237   2.471   2.322   2.414   2.523   2.300   2.255   2.235   2.302   2.399   2.409   2.258   2.228
   120.62    2.030   2.318   2.195   2.357   2.370   2.344   2.206   2.229   2.321   2.261   2.294   2.318   2.246   2.266   2.334   2.265   2.208
   110.31    2.104   2.177   2.245   2.487   2.467   2.315   2.130   2.042   2.075   2.226   2.445   2.253   2.307   2.369   2.366   2.232   2.357
   100.00    2.038   2.064   2.082   2.244   2.336   2.329   2.229   2.051   1.983   2.151   2.329   2.349   2.466   2.375   2.390   2.353   2.324
    89.69    2.050   2.203   2.079   2.114   2.118   2.205   2.111   2.066   2.093   2.032   2.202   2.160   2.204   2.189   2.268   2.426   2.492
    79.38    2.049   2.117   2.058   1.996   2.093   2.093   2.017   2.004   2.063   2.142   2.023   2.141   2.209   2.334   2.375   2.415   2.469
    69.06    2.093   2.108   2.216   2.187   2.166   2.169   1.957   1.977   2.065   2.008   2.291   2.157   2.372   2.374   2.414   2.328   2.464
    58.75    2.014   2.099   2.246   2.290   2.081   2.136   1.976   1.910   2.035   2.091   2.231   2.175   2.309   2.336   2.244   2.159   2.404
    48.44    2.287   2.277   2.442   2.007   2.078   1.941   1.877   1.968   1.957   1.991   1.973   2.046   2.151   2.261   2.151   2.068   2.332
    38.12    2.378   2.399   2.312   2.143   2.092   1.880   1.833   1.889   1.868   2.038   2.050   2.125   2.158   2.215   2.204   2.189   2.350
    27.81    2.379   2.267   2.346   2.247   2.082   2.053   2.019   1.952   1.905   1.971   2.086   2.051   2.037   2.297   2.333   2.194   2.364
    17.50    2.283   2.285   2.227   2.161   2.220   2.203   2.141   2.145   2.018   2.031   2.176   2.264   2.160   2.341   2.329   2.550   2.561

   Height   Standard deviation at grid points for the v component:
   182.50    1.867   1.867   1.867   1.867   1.867   1.867   1.867   1.867   1.867   1.867   1.867   1.867   1.867   1.867   1.867   1.867   1.867
   172.19    1.867   1.867   1.867   1.867   1.867   1.867   1.867   1.867   1.867   1.867   1.867   1.867   1.867   1.867   1.867   1.867   1.867
   161.88    1.867   1.867   1.867   1.867   1.867   1.867   1.867   1.867   1.867   1.867   1.867   1.867   1.867   1.867   1.867   1.867   1.867
   151.56    1.867   1.867   1.867   1.867   1.867   1.867   1.867   1.867   1.867   1.867   1.867   1.867   1.867   1.867   1.867   1.867   1.867
   141.25    1.867   1.867   1.867   1.867   1.867   1.867   1.867   1.867   1.867   1.867   1.867   1.867   1.867   1.867   1.867   1.867   1.867
   130.94    1.867   1.867   1.867   1.867   1.867   1.867   1.867   1.867   1.867   1.867   1.867   1.867   1.867   1.867   1.867   1.867   1.867
   120.62    1.867   1.867   1.867   1.867   1.867   1.867   1.867   1.867   1.867   1.867   1.867   1.867   1.867   1.867   1.867   1.867   1.867
   110.31    1.867   1.867   1.867   1.867   1.867   1.867   1.867   1.867   1.867   1.867   1.867   1.867   1.867   1.867   1.867   1.867   1.867
   100.00    1.867   1.867   1.867   1.867   1.867   1.867   1.867   1.867   1.867   1.867   1.867   1.867   1.867   1.867   1.867   1.867   1.867
    89.69    1.867   1.867   1.867   1.867   1.867   1.867   1.867   1.867   1.867   1.867   1.867   1.867   1.867   1.867   1.867   1.867   1.867
    79.38    1.867   1.867   1.867   1.867   1.867   1.867   1.867   1.867   1.867   1.867   1.867   1.867   1.867   1.867   1.867   1.867   1.867
    69.06    1.867   1.867   1.867   1.867   1.867   1.867   1.867   1.867   1.867   1.867   1.867   1.867   1.867   1.867   1.867   1.867   1.867
    58.75    1.867   1.867   1.867   1.867   1.867   1.867   1.867   1.867   1.867   1.867   1.867   1.867   1.867   1.867   1.867   1.867   1.867
    48.44    1.867   1.867   1.867   1.867   1.867   1.867   1.867   1.867   1.867   1.867   1.867   1.867   1.867   1.867   1.867   1.867   1.867
    38.12    1.867   1.867   1.867   1.867   1.867   1.867   1.867   1.867   1.867   1.867   1.867   1.867   1.867   1.867   1.867   1.867   1.867
    27.81    1.867   1.867   1.867   1.867   1.867   1.867   1.867   1.867   1.867   1.867   1.867   1.867   1.867   1.867   1.867   1.867   1.867
    17.50    1.867   1.867   1.867   1.867   1.867   1.867   1.867   1.867   1.867   1.867   1.867   1.867   1.867   1.867   1.867   1.867   1.867

   Height   Standard deviation at grid points for the w component:
   182.50    1.165   1.165   1.165   1.165   1.165   1.165   1.165   1.165   1.165   1.165   1.165   1.165   1.165   1.165   1.165   1.165   1.165
   172.19    1.165   1.165   1.165   1.165   1.165   1.165   1.165   1.165   1.165   1.165   1.165   1.165   1.165   1.165   1.165   1.165   1.165
   161.88    1.165   1.165   1.165   1.165   1.165   1.165   1.165   1.165   1.165   1.165   1.165   1.165   1.165   1.165   1.165   1.165   1.165
   151.56    1.165   1.165   1.165   1.165   1.165   1.165   1.165   1.165   1.165   1.165   1.165   1.165   1.165   1.165   1.165   1.165   1.165
   141.25    1.165   1.165   1.165   1.165   1.165   1.165   1.165   1.165   1.165   1.165   1.165   1.165   1.165   1.165   1.165   1.165   1.165
   130.94    1.165   1.165   1.165   1.165   1.165   1.165   1.165   1.165   1.165   1.165   1.165   1.165   1.165   1.165   1.165   1.165   1.165
   120.62    1.165   1.165   1.165   1.165   1.165   1.165   1.165   1.165   1.165   1.165   1.165   1.165   1.165   1.165   1.165   1.165   1.165
   110.31    1.165   1.165   1.165   1.165   1.165   1.165   1.165   1.165   1.165   1.165   1.165   1.165   1.165   1.165   1.165   1.165   1.165
   100.00    1.165   1.165   1.165   1.165   1.165   1.165   1.165   1.165   1.165   1.165   1.165   1.165   1.165   1.165   1.165   1.165   1.165
    89.69    1.165   1.165   1.165   1.165   1.165   1.165   1.165   1.165   1.165   1.165   1.165   1.165   1.165   1.165   1.165   1.165   1.165
    79.38    1.165   1.165   1.165   1.165   1.165   1.165   1.165   1.165   1.165   1.165   1.165   1.165   1.165   1.165   1.165   1.165   1.165
    69.06    1.165   1.165   1.165   1.165   1.165   1.165   1.165   1.165   1.165   1.165   1.165   1.165   1.165   1.165   1.165   1.165   1.165
    58.75    1.165   1.165   1.165   1.165   1.165   1.165   1.165   1.165   1.165   1.165   1.165   1.165   1.165   1.165   1.165   1.165   1.165
    48.44    1.165   1.165   1.165   1.165   1.165   1.165   1.165   1.165   1.165   1.165   1.165   1.165   1.165   1.165   1.165   1.165   1.165
    38.12    1.165   1.165   1.165   1.165   1.165   1.165   1.165   1.165   1.165   1.165   1.165   1.165   1.165   1.165   1.165   1.165   1.165
    27.81    1.165   1.165   1.165   1.165   1.165   1.165   1.165   1.165   1.165   1.165   1.165   1.165   1.165   1.165   1.165   1.165   1.165
    17.50    1.165   1.165   1.165   1.165   1.165   1.165   1.165   1.165   1.165   1.165   1.165   1.165   1.165   1.165   1.165   1.165   1.165

   Mean standard deviation across all grid points:
      u component:    2.240 m/s
      v component:    1.867 m/s
      w component:    1.165 m/s


U-component (X) statistics from the hub grid point:

   Mean =  12.4000 m/s
   TI   =  15.9886 %


Normalizing Parameters for Binary Data (approximate statistics):

   UBar  =  12.4000 m/s
   TI(u) =  15.9886 %
   TI(v) =  15.0590 %
   TI(w) =   9.3963 %

   Height Offset =   0.0000 m
   Grid Base     =  17.5000 m

Nyquist frequency of turbulent wind field =        10.000 Hz


Processing complete.  5.4219 CPU seconds used.
