
This summary file was generated by TurbSim (v1.06.00, 21-Sep-2012) on 18-Jan-2026 at 22:37:45.


Runtime Options:

       400  Random seed #1
    RANLUX  Type of random number generator
         F  Output binary HH turbulence parameters?
         F  Output formatted turbulence parameters?
         F  Output AeroDyn HH files?
         F  Output AeroDyn FF files?
         T  Output BLADED FF files?
         T  Output tower data?
         F  Output formatted FF files?
         F  Output coherent turbulence time step file?
         T  Clockwise rotation when looking downwind?
 0 -  NONE  IEC turbulence models scaled to exact specified standard deviation


Turbine/Model Specifications:

        17  Vertical grid-point matrix dimension
        17  Horizontal grid-point matrix dimension
     0.050  Time step [seconds]
    60.000  Analysis time [seconds]
   660.000  Usable output time [seconds]
   100.000  Hub height [m]
   165.000  Grid height [m]
   165.000  Grid width [m]
     0.000  Vertical flow angle [degrees]
     0.000  Horizontal flow angle [degrees]


Meteorological Boundary Conditions:

    IECKAI  IEC Kaimal spectral model
         1  IEC standard: IEC 61400-1 Ed. 3: 2005
         A  IEC turbulence characteristic
       NTM  IEC Normal Turbulence Model
       N/A  IEC Extreme Turbulence Model (ETM) "c" parameter [m/s]
       IEC  Wind profile type
   100.000  Reference height [m]
     8.400  Reference wind speed [m/s]
       N/A  Jet height [m]
     0.200  Power law exponent
     0.030  Surface roughness length [m]


You have requested that the following file(s) be generated:

   8ms_2A.wnd (AeroDyn/BLADED full-field wnd file)
   8ms_2A.twr (Binary tower twr file)


Turbulence Simulation Scaling Parameter Summary:

   Turbulence model used                            =  IEC Kaimal
   Turbulence characteristic                        =  A
   IEC turbulence type                              =  Normal Turbulence Model
   IEC standard                                     =  IEC 61400-1 Ed. 3: 2005
   Mean wind speed at hub height                    =    8.400 m/s
   Expected value of turbulence intensity at 15 m/s =   16.000%
   Characteristic value of standard deviation       =    1.904 m/s
   Turbulence scale                                 =   42.000 m
   u-component integral scale                       =  340.200 m
   Coherency scale                                  =  340.200 m
   Characteristic value of hub turbulence intensity =   22.667%
   Gradient Richardson number                       =    0.000

   Wind profile type                                =  Power law on rotor disk, logarithmic elsewhere
   Power law exponent                               =    0.200
   Mean shear across rotor disk                     =    0.021 (m/s)/m
   Assumed rotor diameter                           =  165.000 m
   Surface roughness length                         =    0.030 m

   Number of time steps in the FFT                  =    13600
   Number of time steps output                      =    13593


Mean Flow Angles:

   Vertical   =   0.0 degrees
   Horizontal =   0.0 degrees

Mean Wind Speed Profile:

   Height    Wind Speed   Horizontal Angle  U-comp (X)   V-comp (Y)   W-comp (Z)
     (m)        (m/s)         (degrees)       (m/s)        (m/s)        (m/s)   
   ------    ----------   ----------------  ----------   ----------   ----------
    182.5        9.47            0.00          9.47         0.00         0.00
    172.2        9.36            0.00          9.36         0.00         0.00
    161.9        9.25            0.00          9.25         0.00         0.00
    151.6        9.13            0.00          9.13         0.00         0.00
    141.2        9.00            0.00          9.00         0.00         0.00
    130.9        8.87            0.00          8.87         0.00         0.00
    120.6        8.72            0.00          8.72         0.00         0.00
    110.3        8.57            0.00          8.57         0.00         0.00
    100.0        8.40            0.00          8.40         0.00         0.00
     89.7        8.22            0.00          8.22         0.00         0.00
     79.4        8.02            0.00          8.02         0.00         0.00
     69.1        7.80            0.00          7.80         0.00         0.00
     58.8        7.55            0.00          7.55         0.00         0.00
     48.4        7.27            0.00          7.27         0.00         0.00
     38.1        6.93            0.00          6.93         0.00         0.00
     27.8        6.50            0.00          6.50         0.00         0.00
     17.5        5.93            0.00          5.93         0.00         0.00
      7.2        5.67            0.00          5.67         0.00         0.00


Harvested Random Seeds after Generation of the Random Numbers:

     54969500 K1
            0 K2


Hub-Height Simulated Turbulence Statistical Summary:

   Type of Wind        Min (m/s)   Mean (m/s)    Max (m/s)  Sigma (m/s)       TI (%)
   ----------------    ---------   ----------    ---------  -----------       ------
   Longitudinal (u)         1.26         8.40        14.40        2.431       28.946
   Lateral (v)             -5.12         0.00         4.88        1.485       17.675
   Vertical (w)            -3.75         0.00         3.26        0.933       11.110
   U component              1.26         8.40        14.40        2.431       28.946
   V component             -5.12         0.00         4.88        1.485       17.675
   W component             -3.75         0.00         3.26        0.933       11.110
   Horizontal (U&V)         1.70         8.54        14.48        2.401       28.125
   Total                    1.95         8.59        14.49        2.393       27.850

                       Min Reynolds     Mean Reynolds    Max Reynolds    Correlation
   Product             Stress (m/s)^2   Stress (m/s)^2   Stress (m/s)^2  Coefficient
   ----------------    --------------   --------------   --------------  -----------
   u'w'                    -13.264            -0.372            13.007        -0.164
   u'v'                    -17.757            -1.145            13.691        -0.317
   v'w'                     -8.497             0.070            13.147         0.051


   Friction Velocity (Ustar)  =      0.610 m/s
   Maximum Instantaneous TKE  =     26.730 (m/s)^2
   Maximum Instantaneous CTKE =     11.067 (m/s)^2


Grid Point Variance Summary:

   Y-coord  -82.50  -72.19  -61.88  -51.56  -41.25  -30.94  -20.62  -10.31    0.00   10.31   20.62   30.94   41.25   51.56   61.88   72.19   82.50

   Height   Standard deviation at grid points for the u component:
   182.50    1.966   2.174   1.978   1.967   1.814   2.172   2.168   1.905   1.951   1.998   2.009   1.959   1.822   1.797   1.770   1.797   1.670
   172.19    2.120   2.253   2.211   1.979   1.919   2.142   2.145   2.028   1.994   2.199   2.087   2.054   1.791   1.658   1.826   1.768   1.670
   161.88    2.053   2.203   2.399   2.176   2.100   2.284   2.164   2.185   2.167   2.200   1.973   2.007   1.976   1.847   1.973   1.761   1.695
   151.56    2.234   2.256   2.395   2.444   2.392   2.386   2.168   2.190   2.137   2.160   2.102   2.220   2.029   1.931   1.976   1.922   1.830
   141.25    2.072   2.302   2.242   2.397   2.447   2.481   2.378   2.232   2.258   2.082   1.933   2.064   1.991   2.059   2.012   2.106   1.817
   130.94    2.216   2.199   2.382   2.449   2.349   2.598   2.387   2.309   2.202   2.027   2.110   1.935   1.990   1.961   2.077   2.098   2.017
   120.62    2.357   2.369   2.380   2.220   2.506   2.530   2.376   2.326   2.209   2.055   2.121   2.046   2.205   2.030   1.947   1.938   2.024
   110.31    2.414   2.504   2.500   2.507   2.617   2.482   2.423   2.303   2.048   2.103   2.083   2.022   2.009   1.988   1.951   2.073   1.936
   100.00    2.606   2.821   2.572   2.609   2.510   2.405   2.562   2.462   2.431   2.231   2.143   2.089   1.963   1.939   2.121   2.133   1.881
    89.69    2.506   2.796   2.732   2.694   2.679   2.722   2.476   2.467   2.491   2.422   2.301   2.084   1.864   1.950   2.068   2.061   1.952
    79.38    2.491   2.684   2.867   2.705   2.761   2.730   2.490   2.315   2.350   2.395   2.210   2.212   1.952   2.004   2.130   2.066   1.857
    69.06    2.259   2.444   2.603   2.602   2.512   2.450   2.409   2.164   2.200   2.229   2.095   2.159   1.929   2.058   2.143   1.991   1.961
    58.75    1.988   2.165   2.326   2.408   2.409   2.421   2.361   2.143   2.124   1.984   2.088   2.010   1.883   1.972   2.097   2.182   1.980
    48.44    2.121   2.139   2.181   2.021   2.189   2.287   2.218   2.074   2.066   2.169   1.910   2.020   1.917   1.895   1.948   2.157   2.101
    38.12    1.867   1.980   2.037   2.110   2.088   2.257   2.296   2.072   2.096   1.964   2.055   1.982   2.017   1.930   1.955   2.099   2.151
    27.81    1.897   1.826   1.954   1.996   2.074   2.127   2.191   2.050   2.257   2.114   2.011   2.094   1.966   1.802   2.065   2.092   2.213
    17.50    1.793   1.881   1.983   1.960   2.063   2.236   2.105   2.093   2.151   2.229   2.033   2.032   1.977   1.995   2.094   2.216   2.218

   Height   Standard deviation at grid points for the v component:
   182.50    1.485   1.485   1.485   1.485   1.485   1.485   1.485   1.485   1.485   1.485   1.485   1.485   1.485   1.485   1.485   1.485   1.485
   172.19    1.485   1.485   1.485   1.485   1.485   1.485   1.485   1.485   1.485   1.485   1.485   1.485   1.485   1.485   1.485   1.485   1.485
   161.88    1.485   1.485   1.485   1.485   1.485   1.485   1.485   1.485   1.485   1.485   1.485   1.485   1.485   1.485   1.485   1.485   1.485
   151.56    1.485   1.485   1.485   1.485   1.485   1.485   1.485   1.485   1.485   1.485   1.485   1.485   1.485   1.485   1.485   1.485   1.485
   141.25    1.485   1.485   1.485   1.485   1.485   1.485   1.485   1.485   1.485   1.485   1.485   1.485   1.485   1.485   1.485   1.485   1.485
   130.94    1.485   1.485   1.485   1.485   1.485   1.485   1.485   1.485   1.485   1.485   1.485   1.485   1.485   1.485   1.485   1.485   1.485
   120.62    1.485   1.485   1.485   1.485   1.485   1.485   1.485   1.485   1.485   1.485   1.485   1.485   1.485   1.485   1.485   1.485   1.485
   110.31    1.485   1.485   1.485   1.485   1.485   1.485   1.485   1.485   1.485   1.485   1.485   1.485   1.485   1.485   1.485   1.485   1.485
   100.00    1.485   1.485   1.485   1.485   1.485   1.485   1.485   1.485   1.485   1.485   1.485   1.485   1.485   1.485   1.485   1.485   1.485
    89.69    1.485   1.485   1.485   1.485   1.485   1.485   1.485   1.485   1.485   1.485   1.485   1.485   1.485   1.485   1.485   1.485   1.485
    79.38    1.485   1.485   1.485   1.485   1.485   1.485   1.485   1.485   1.485   1.485   1.485   1.485   1.485   1.485   1.485   1.485   1.485
    69.06    1.485   1.485   1.485   1.485   1.485   1.485   1.485   1.485   1.485   1.485   1.485   1.485   1.485   1.485   1.485   1.485   1.485
    58.75    1.485   1.485   1.485   1.485   1.485   1.485   1.485   1.485   1.485   1.485   1.485   1.485   1.485   1.485   1.485   1.485   1.485
    48.44    1.485   1.485   1.485   1.485   1.485   1.485   1.485   1.485   1.485   1.485   1.485   1.485   1.485   1.485   1.485   1.485   1.485
    38.12    1.485   1.485   1.485   1.485   1.485   1.485   1.485   1.485   1.485   1.485   1.485   1.485   1.485   1.485   1.485   1.485   1.485
    27.81    1.485   1.485   1.485   1.485   1.485   1.485   1.485   1.485   1.485   1.485   1.485   1.485   1.485   1.485   1.485   1.485   1.485
    17.50    1.485   1.485   1.485   1.485   1.485   1.485   1.485   1.485   1.485   1.485   1.485   1.485   1.485   1.485   1.485   1.485   1.485

   Height   Standard deviation at grid points for the w component:
   182.50    0.933   0.933   0.933   0.933   0.933   0.933   0.933   0.933   0.933   0.933   0.933   0.933   0.933   0.933   0.933   0.933   0.933
   172.19    0.933   0.933   0.933   0.933   0.933   0.933   0.933   0.933   0.933   0.933   0.933   0.933   0.933   0.933   0.933   0.933   0.933
   161.88    0.933   0.933   0.933   0.933   0.933   0.933   0.933   0.933   0.933   0.933   0.933   0.933   0.933   0.933   0.933   0.933   0.933
   151.56    0.933   0.933   0.933   0.933   0.933   0.933   0.933   0.933   0.933   0.933   0.933   0.933   0.933   0.933   0.933   0.933   0.933
   141.25    0.933   0.933   0.933   0.933   0.933   0.933   0.933   0.933   0.933   0.933   0.933   0.933   0.933   0.933   0.933   0.933   0.933
   130.94    0.933   0.933   0.933   0.933   0.933   0.933   0.933   0.933   0.933   0.933   0.933   0.933   0.933   0.933   0.933   0.933   0.933
   120.62    0.933   0.933   0.933   0.933   0.933   0.933   0.933   0.933   0.933   0.933   0.933   0.933   0.933   0.933   0.933   0.933   0.933
   110.31    0.933   0.933   0.933   0.933   0.933   0.933   0.933   0.933   0.933   0.933   0.933   0.933   0.933   0.933   0.933   0.933   0.933
   100.00    0.933   0.933   0.933   0.933   0.933   0.933   0.933   0.933   0.933   0.933   0.933   0.933   0.933   0.933   0.933   0.933   0.933
    89.69    0.933   0.933   0.933   0.933   0.933   0.933   0.933   0.933   0.933   0.933   0.933   0.933   0.933   0.933   0.933   0.933   0.933
    79.38    0.933   0.933   0.933   0.933   0.933   0.933   0.933   0.933   0.933   0.933   0.933   0.933   0.933   0.933   0.933   0.933   0.933
    69.06    0.933   0.933   0.933   0.933   0.933   0.933   0.933   0.933   0.933   0.933   0.933   0.933   0.933   0.933   0.933   0.933   0.933
    58.75    0.933   0.933   0.933   0.933   0.933   0.933   0.933   0.933   0.933   0.933   0.933   0.933   0.933   0.933   0.933   0.933   0.933
    48.44    0.933   0.933   0.933   0.933   0.933   0.933   0.933   0.933   0.933   0.933   0.933   0.933   0.933   0.933   0.933   0.933   0.933
    38.12    0.933   0.933   0.933   0.933   0.933   0.933   0.933   0.933   0.933   0.933   0.933   0.933   0.933   0.933   0.933   0.933   0.933
    27.81    0.933   0.933   0.933   0.933   0.933   0.933   0.933   0.933   0.933   0.933   0.933   0.933   0.933   0.933   0.933   0.933   0.933
    17.50    0.933   0.933   0.933   0.933   0.933   0.933   0.933   0.933   0.933   0.933   0.933   0.933   0.933   0.933   0.933   0.933   0.933

   Mean standard deviation across all grid points:
      u component:    2.157 m/s
      v component:    1.485 m/s
      w component:    0.933 m/s


U-component (X) statistics from the hub grid point:

   Mean =   8.4000 m/s
   TI   =  28.9457 %


Normalizing Parameters for Binary Data (approximate statistics):

   UBar  =   8.4000 m/s
   TI(u) =  28.9457 %
   TI(v) =  17.6752 %
   TI(w) =  11.1103 %

   Height Offset =   0.0000 m
   Grid Base     =  17.5000 m

Nyquist frequency of turbulent wind field =        10.000 Hz


Processing complete.  5.5469 CPU seconds used.
