
This summary file was generated by TurbSim (v1.06.00, 21-Sep-2012) on 18-Jan-2026 at 23:00:35.


Runtime Options:

       300  Random seed #1
    RANLUX  Type of random number generator
         F  Output binary HH turbulence parameters?
         F  Output formatted turbulence parameters?
         F  Output AeroDyn HH files?
         F  Output AeroDyn FF files?
         T  Output BLADED FF files?
         T  Output tower data?
         F  Output formatted FF files?
         F  Output coherent turbulence time step file?
         T  Clockwise rotation when looking downwind?
 0 -  NONE  IEC turbulence models scaled to exact specified standard deviation


Turbine/Model Specifications:

        17  Vertical grid-point matrix dimension
        17  Horizontal grid-point matrix dimension
     0.050  Time step [seconds]
    60.000  Analysis time [seconds]
   660.000  Usable output time [seconds]
   100.000  Hub height [m]
   165.000  Grid height [m]
   165.000  Grid width [m]
     0.000  Vertical flow angle [degrees]
     0.000  Horizontal flow angle [degrees]


Meteorological Boundary Conditions:

    IECKAI  IEC Kaimal spectral model
         1  IEC standard: IEC 61400-1 Ed. 3: 2005
         A  IEC turbulence characteristic
       NTM  IEC Normal Turbulence Model
       N/A  IEC Extreme Turbulence Model (ETM) "c" parameter [m/s]
       IEC  Wind profile type
   100.000  Reference height [m]
    12.400  Reference wind speed [m/s]
       N/A  Jet height [m]
     0.200  Power law exponent
     0.030  Surface roughness length [m]


You have requested that the following file(s) be generated:

   12ms_2A.wnd (AeroDyn/BLADED full-field wnd file)
   12ms_2A.twr (Binary tower twr file)


Turbulence Simulation Scaling Parameter Summary:

   Turbulence model used                            =  IEC Kaimal
   Turbulence characteristic                        =  A
   IEC turbulence type                              =  Normal Turbulence Model
   IEC standard                                     =  IEC 61400-1 Ed. 3: 2005
   Mean wind speed at hub height                    =   12.400 m/s
   Expected value of turbulence intensity at 15 m/s =   16.000%
   Characteristic value of standard deviation       =    2.384 m/s
   Turbulence scale                                 =   42.000 m
   u-component integral scale                       =  340.200 m
   Coherency scale                                  =  340.200 m
   Characteristic value of hub turbulence intensity =   19.226%
   Gradient Richardson number                       =    0.000

   Wind profile type                                =  Power law on rotor disk, logarithmic elsewhere
   Power law exponent                               =    0.200
   Mean shear across rotor disk                     =    0.032 (m/s)/m
   Assumed rotor diameter                           =  165.000 m
   Surface roughness length                         =    0.030 m

   Number of time steps in the FFT                  =    13500
   Number of time steps output                      =    13467


Mean Flow Angles:

   Vertical   =   0.0 degrees
   Horizontal =   0.0 degrees

Mean Wind Speed Profile:

   Height    Wind Speed   Horizontal Angle  U-comp (X)   V-comp (Y)   W-comp (Z)
     (m)        (m/s)         (degrees)       (m/s)        (m/s)        (m/s)   
   ------    ----------   ----------------  ----------   ----------   ----------
    182.5       13.99            0.00         13.99         0.00         0.00
    172.2       13.82            0.00         13.82         0.00         0.00
    161.9       13.65            0.00         13.65         0.00         0.00
    151.6       13.48            0.00         13.48         0.00         0.00
    141.2       13.29            0.00         13.29         0.00         0.00
    130.9       13.09            0.00         13.09         0.00         0.00
    120.6       12.87            0.00         12.87         0.00         0.00
    110.3       12.65            0.00         12.65         0.00         0.00
    100.0       12.40            0.00         12.40         0.00         0.00
     89.7       12.13            0.00         12.13         0.00         0.00
     79.4       11.84            0.00         11.84         0.00         0.00
     69.1       11.52            0.00         11.52         0.00         0.00
     58.8       11.15            0.00         11.15         0.00         0.00
     48.4       10.73            0.00         10.73         0.00         0.00
     38.1       10.23            0.00         10.23         0.00         0.00
     27.8        9.60            0.00          9.60         0.00         0.00
     17.5        8.75            0.00          8.75         0.00         0.00
      7.2        8.38            0.00          8.38         0.00         0.00


Harvested Random Seeds after Generation of the Random Numbers:

     54565213 K1
            0 K2


Hub-Height Simulated Turbulence Statistical Summary:

   Type of Wind        Min (m/s)   Mean (m/s)    Max (m/s)  Sigma (m/s)       TI (%)
   ----------------    ---------   ----------    ---------  -----------       ------
   Longitudinal (u)         5.35        12.40        20.12        2.392       19.291
   Lateral (v)             -6.63         0.00         6.82        1.867       15.059
   Vertical (w)            -4.99         0.00         4.65        1.165        9.396
   U component              5.35        12.40        20.12        2.392       19.291
   V component             -6.63         0.00         6.82        1.867       15.059
   W component             -4.99         0.00         4.65        1.165        9.396
   Horizontal (U&V)         5.36        12.54        20.17        2.411       19.229
   Total                    5.46        12.59        20.27        2.401       19.071

                       Min Reynolds     Mean Reynolds    Max Reynolds    Correlation
   Product             Stress (m/s)^2   Stress (m/s)^2   Stress (m/s)^2  Coefficient
   ----------------    --------------   --------------   --------------  -----------
   u'w'                    -13.568             0.147            19.928         0.053
   u'v'                    -24.290             0.015            27.331         0.003
   v'w'                    -15.402            -0.111            17.297        -0.051


   Friction Velocity (Ustar)  =      0.384 m/s
   Maximum Instantaneous TKE  =     32.883 (m/s)^2
   Maximum Instantaneous CTKE =     14.715 (m/s)^2


Grid Point Variance Summary:

   Y-coord  -82.50  -72.19  -61.88  -51.56  -41.25  -30.94  -20.62  -10.31    0.00   10.31   20.62   30.94   41.25   51.56   61.88   72.19   82.50

   Height   Standard deviation at grid points for the u component:
   182.50    2.250   2.274   2.476   2.458   2.482   2.546   2.560   2.572   2.502   2.141   2.187   2.196   2.150   2.231   2.323   2.434   2.249
   172.19    2.263   2.492   2.557   2.594   2.662   2.551   2.535   2.519   2.327   2.334   2.280   2.233   2.088   2.052   2.292   2.330   2.286
   161.88    2.275   2.532   2.545   2.467   2.464   2.615   2.568   2.505   2.361   2.388   2.356   2.218   2.197   2.132   2.194   2.260   2.271
   151.56    2.563   2.485   2.475   2.336   2.386   2.554   2.495   2.471   2.461   2.395   2.316   2.200   2.168   2.201   2.318   2.421   2.318
   141.25    2.419   2.378   2.422   2.465   2.473   2.298   2.333   2.443   2.609   2.455   2.276   2.388   2.276   2.169   2.177   2.333   2.355
   130.94    2.481   2.243   2.241   2.356   2.207   2.165   2.327   2.516   2.422   2.402   2.426   2.237   2.389   2.256   2.233   2.290   2.183
   120.62    2.492   2.456   2.285   2.190   2.190   2.187   2.368   2.416   2.356   2.320   2.262   2.271   2.266   2.185   2.289   2.287   2.126
   110.31    2.317   2.361   2.411   2.319   2.176   2.212   2.344   2.418   2.431   2.338   2.265   2.305   2.189   2.100   2.279   2.337   2.184
   100.00    2.580   2.510   2.340   2.244   2.080   2.255   2.421   2.248   2.392   2.298   2.342   2.232   2.181   1.995   2.308   2.505   2.331
    89.69    2.791   2.520   2.533   2.420   2.288   2.407   2.359   2.356   2.312   2.227   2.370   2.503   2.528   2.163   2.094   2.366   2.422
    79.38    2.586   2.575   2.647   2.596   2.530   2.609   2.453   2.377   2.525   2.494   2.490   2.563   2.595   2.283   2.159   2.345   2.498
    69.06    2.767   2.531   2.712   2.708   2.590   2.500   2.587   2.455   2.453   2.457   2.587   2.639   2.660   2.230   2.162   2.276   2.474
    58.75    2.580   2.642   2.614   2.665   2.720   2.701   2.650   2.432   2.537   2.387   2.367   2.446   2.495   2.372   2.269   2.320   2.306
    48.44    2.338   2.531   2.702   2.717   2.633   2.618   2.616   2.388   2.408   2.229   2.142   2.331   2.317   2.101   2.226   2.320   2.412
    38.12    2.385   2.549   2.586   2.626   2.416   2.503   2.528   2.492   2.397   2.322   2.322   2.336   2.369   2.321   2.145   2.291   2.344
    27.81    2.360   2.324   2.418   2.540   2.412   2.288   2.386   2.506   2.422   2.228   2.294   2.357   2.280   2.222   2.155   2.219   2.321
    17.50    2.283   2.427   2.441   2.388   2.528   2.250   2.303   2.375   2.367   2.351   2.404   2.387   2.298   2.068   2.099   2.248   2.190

   Height   Standard deviation at grid points for the v component:
   182.50    1.867   1.867   1.867   1.867   1.867   1.867   1.867   1.867   1.867   1.867   1.867   1.867   1.867   1.867   1.867   1.867   1.867
   172.19    1.867   1.867   1.867   1.867   1.867   1.867   1.867   1.867   1.867   1.867   1.867   1.867   1.867   1.867   1.867   1.867   1.867
   161.88    1.867   1.867   1.867   1.867   1.867   1.867   1.867   1.867   1.867   1.867   1.867   1.867   1.867   1.867   1.867   1.867   1.867
   151.56    1.867   1.867   1.867   1.867   1.867   1.867   1.867   1.867   1.867   1.867   1.867   1.867   1.867   1.867   1.867   1.867   1.867
   141.25    1.867   1.867   1.867   1.867   1.867   1.867   1.867   1.867   1.867   1.867   1.867   1.867   1.867   1.867   1.867   1.867   1.867
   130.94    1.867   1.867   1.867   1.867   1.867   1.867   1.867   1.867   1.867   1.867   1.867   1.867   1.867   1.867   1.867   1.867   1.867
   120.62    1.867   1.867   1.867   1.867   1.867   1.867   1.867   1.867   1.867   1.867   1.867   1.867   1.867   1.867   1.867   1.867   1.867
   110.31    1.867   1.867   1.867   1.867   1.867   1.867   1.867   1.867   1.867   1.867   1.867   1.867   1.867   1.867   1.867   1.867   1.867
   100.00    1.867   1.867   1.867   1.867   1.867   1.867   1.867   1.867   1.867   1.867   1.867   1.867   1.867   1.867   1.867   1.867   1.867
    89.69    1.867   1.867   1.867   1.867   1.867   1.867   1.867   1.867   1.867   1.867   1.867   1.867   1.867   1.867   1.867   1.867   1.867
    79.38    1.867   1.867   1.867   1.867   1.867   1.867   1.867   1.867   1.867   1.867   1.867   1.867   1.867   1.867   1.867   1.867   1.867
    69.06    1.867   1.867   1.867   1.867   1.867   1.867   1.867   1.867   1.867   1.867   1.867   1.867   1.867   1.867   1.867   1.867   1.867
    58.75    1.867   1.867   1.867   1.867   1.867   1.867   1.867   1.867   1.867   1.867   1.867   1.867   1.867   1.867   1.867   1.867   1.867
    48.44    1.867   1.867   1.867   1.867   1.867   1.867   1.867   1.867   1.867   1.867   1.867   1.867   1.867   1.867   1.867   1.867   1.867
    38.12    1.867   1.867   1.867   1.867   1.867   1.867   1.867   1.867   1.867   1.867   1.867   1.867   1.867   1.867   1.867   1.867   1.867
    27.81    1.867   1.867   1.867   1.867   1.867   1.867   1.867   1.867   1.867   1.867   1.867   1.867   1.867   1.867   1.867   1.867   1.867
    17.50    1.867   1.867   1.867   1.867   1.867   1.867   1.867   1.867   1.867   1.867   1.867   1.867   1.867   1.867   1.867   1.867   1.867

   Height   Standard deviation at grid points for the w component:
   182.50    1.165   1.165   1.165   1.165   1.165   1.165   1.165   1.165   1.165   1.165   1.165   1.165   1.165   1.165   1.165   1.165   1.165
   172.19    1.165   1.165   1.165   1.165   1.165   1.165   1.165   1.165   1.165   1.165   1.165   1.165   1.165   1.165   1.165   1.165   1.165
   161.88    1.165   1.165   1.165   1.165   1.165   1.165   1.165   1.165   1.165   1.165   1.165   1.165   1.165   1.165   1.165   1.165   1.165
   151.56    1.165   1.165   1.165   1.165   1.165   1.165   1.165   1.165   1.165   1.165   1.165   1.165   1.165   1.165   1.165   1.165   1.165
   141.25    1.165   1.165   1.165   1.165   1.165   1.165   1.165   1.165   1.165   1.165   1.165   1.165   1.165   1.165   1.165   1.165   1.165
   130.94    1.165   1.165   1.165   1.165   1.165   1.165   1.165   1.165   1.165   1.165   1.165   1.165   1.165   1.165   1.165   1.165   1.165
   120.62    1.165   1.165   1.165   1.165   1.165   1.165   1.165   1.165   1.165   1.165   1.165   1.165   1.165   1.165   1.165   1.165   1.165
   110.31    1.165   1.165   1.165   1.165   1.165   1.165   1.165   1.165   1.165   1.165   1.165   1.165   1.165   1.165   1.165   1.165   1.165
   100.00    1.165   1.165   1.165   1.165   1.165   1.165   1.165   1.165   1.165   1.165   1.165   1.165   1.165   1.165   1.165   1.165   1.165
    89.69    1.165   1.165   1.165   1.165   1.165   1.165   1.165   1.165   1.165   1.165   1.165   1.165   1.165   1.165   1.165   1.165   1.165
    79.38    1.165   1.165   1.165   1.165   1.165   1.165   1.165   1.165   1.165   1.165   1.165   1.165   1.165   1.165   1.165   1.165   1.165
    69.06    1.165   1.165   1.165   1.165   1.165   1.165   1.165   1.165   1.165   1.165   1.165   1.165   1.165   1.165   1.165   1.165   1.165
    58.75    1.165   1.165   1.165   1.165   1.165   1.165   1.165   1.165   1.165   1.165   1.165   1.165   1.165   1.165   1.165   1.165   1.165
    48.44    1.165   1.165   1.165   1.165   1.165   1.165   1.165   1.165   1.165   1.165   1.165   1.165   1.165   1.165   1.165   1.165   1.165
    38.12    1.165   1.165   1.165   1.165   1.165   1.165   1.165   1.165   1.165   1.165   1.165   1.165   1.165   1.165   1.165   1.165   1.165
    27.81    1.165   1.165   1.165   1.165   1.165   1.165   1.165   1.165   1.165   1.165   1.165   1.165   1.165   1.165   1.165   1.165   1.165
    17.50    1.165   1.165   1.165   1.165   1.165   1.165   1.165   1.165   1.165   1.165   1.165   1.165   1.165   1.165   1.165   1.165   1.165

   Mean standard deviation across all grid points:
      u component:    2.379 m/s
      v component:    1.867 m/s
      w component:    1.165 m/s


U-component (X) statistics from the hub grid point:

   Mean =  12.4000 m/s
   TI   =  19.2910 %


Normalizing Parameters for Binary Data (approximate statistics):

   UBar  =  12.4000 m/s
   TI(u) =  19.2910 %
   TI(v) =  15.0590 %
   TI(w) =   9.3963 %

   Height Offset =   0.0000 m
   Grid Base     =  17.5000 m

Nyquist frequency of turbulent wind field =        10.000 Hz


Processing complete.  5.6094 CPU seconds used.
