
This summary file was generated by TurbSim (v1.06.00, 21-Sep-2012) on 19-Jan-2026 at 00:31:23.


Runtime Options:

       300  Random seed #1
    RANLUX  Type of random number generator
         F  Output binary HH turbulence parameters?
         F  Output formatted turbulence parameters?
         F  Output AeroDyn HH files?
         F  Output AeroDyn FF files?
         T  Output BLADED FF files?
         T  Output tower data?
         F  Output formatted FF files?
         F  Output coherent turbulence time step file?
         T  Clockwise rotation when looking downwind?
 0 -  NONE  IEC turbulence models scaled to exact specified standard deviation


Turbine/Model Specifications:

        17  Vertical grid-point matrix dimension
        17  Horizontal grid-point matrix dimension
     0.050  Time step [seconds]
    60.000  Analysis time [seconds]
   660.000  Usable output time [seconds]
   100.000  Hub height [m]
   165.000  Grid height [m]
   165.000  Grid width [m]
     0.000  Vertical flow angle [degrees]
     0.000  Horizontal flow angle [degrees]


Meteorological Boundary Conditions:

    IECKAI  IEC Kaimal spectral model
         1  IEC standard: IEC 61400-1 Ed. 3: 2005
         A  IEC turbulence characteristic
    2EWM50  IEC Extreme 50-Year Wind Speed Model
       N/A  IEC Extreme Turbulence Model (ETM) "c" parameter [m/s]
       IEC  Wind profile type
   100.000  Reference height [m]
       N/A  Reference wind speed [m/s]
       N/A  Jet height [m]
       N/A  Power law exponent
     0.030  Surface roughness length [m]


You have requested that the following file(s) be generated:

   42.5ms_2A.wnd (AeroDyn/BLADED full-field wnd file)
   42.5ms_2A.twr (Binary tower twr file)


Turbulence Simulation Scaling Parameter Summary:

   Turbulence model used                            =  IEC Kaimal
   Turbulence characteristic                        =  2A
   IEC turbulence type                              =  Extreme 50-Year Wind Speed Model
   Reference wind speed average over 10 minutes     =   42.500 m/s
   Annual wind speed average at hub height          =    8.500 m/s
   IEC standard                                     =  IEC 61400-1 Ed. 3: 2005
   Mean wind speed at hub height                    =   42.500 m/s
   Expected value of turbulence intensity at 15 m/s =   16.000%
   Characteristic value of standard deviation       =    4.675 m/s
   Turbulence scale                                 =   42.000 m
   u-component integral scale                       =  340.200 m
   Coherency scale                                  =  340.200 m
   Characteristic value of hub turbulence intensity =   11.000%
   Gradient Richardson number                       =    0.000

   Wind profile type                                =  Power law on rotor disk, logarithmic elsewhere
   Power law exponent                               =    0.110
   Mean shear across rotor disk                     =    0.063 (m/s)/m
   Assumed rotor diameter                           =  165.000 m
   Surface roughness length                         =    0.030 m

   Number of time steps in the FFT                  =    13300
   Number of time steps output                      =    13278


Mean Flow Angles:

   Vertical   =   0.0 degrees
   Horizontal =   0.0 degrees

Mean Wind Speed Profile:

   Height    Wind Speed   Horizontal Angle  U-comp (X)   V-comp (Y)   W-comp (Z)
     (m)        (m/s)         (degrees)       (m/s)        (m/s)        (m/s)   
   ------    ----------   ----------------  ----------   ----------   ----------
    182.5       45.41            0.00         45.41         0.00         0.00
    172.2       45.12            0.00         45.12         0.00         0.00
    161.9       44.81            0.00         44.81         0.00         0.00
    151.6       44.49            0.00         44.49         0.00         0.00
    141.2       44.15            0.00         44.15         0.00         0.00
    130.9       43.78            0.00         43.78         0.00         0.00
    120.6       43.39            0.00         43.39         0.00         0.00
    110.3       42.96            0.00         42.96         0.00         0.00
    100.0       42.50            0.00         42.50         0.00         0.00
     89.7       41.99            0.00         41.99         0.00         0.00
     79.4       41.43            0.00         41.43         0.00         0.00
     69.1       40.80            0.00         40.80         0.00         0.00
     58.8       40.08            0.00         40.08         0.00         0.00
     48.4       39.24            0.00         39.24         0.00         0.00
     38.1       38.22            0.00         38.22         0.00         0.00
     27.8       36.92            0.00         36.92         0.00         0.00
     17.5       35.09            0.00         35.09         0.00         0.00
      7.2       31.81            0.00         31.81         0.00         0.00


Harvested Random Seeds after Generation of the Random Numbers:

     53756838 K1
            0 K2


Hub-Height Simulated Turbulence Statistical Summary:

   Type of Wind        Min (m/s)   Mean (m/s)    Max (m/s)  Sigma (m/s)       TI (%)
   ----------------    ---------   ----------    ---------  -----------       ------
   Longitudinal (u)        29.59        42.50        58.71        4.275       10.058
   Lateral (v)            -14.13         0.00        12.40        3.661        8.614
   Vertical (w)            -8.27         0.00         8.69        2.233        5.255
   U component             29.59        42.50        58.71        4.275       10.058
   V component            -14.13         0.00        12.40        3.661        8.614
   W component             -8.27         0.00         8.69        2.233        5.255
   Horizontal (U&V)        29.85        42.66        58.72        4.262        9.991
   Total                   30.03        42.72        58.72        4.260        9.972

                       Min Reynolds     Mean Reynolds    Max Reynolds    Correlation
   Product             Stress (m/s)^2   Stress (m/s)^2   Stress (m/s)^2  Coefficient
   ----------------    --------------   --------------   --------------  -----------
   u'w'                    -59.471             0.090            87.440         0.009
   u'v'                   -105.732            -0.165            98.925        -0.011
   v'w'                   -106.917            -0.404            60.174        -0.049


   Friction Velocity (Ustar)  =      0.301 m/s
   Maximum Instantaneous TKE  =    132.100 (m/s)^2
   Maximum Instantaneous CTKE =     58.462 (m/s)^2


Grid Point Variance Summary:

   Y-coord  -82.50  -72.19  -61.88  -51.56  -41.25  -30.94  -20.62  -10.31    0.00   10.31   20.62   30.94   41.25   51.56   61.88   72.19   82.50

   Height   Standard deviation at grid points for the u component:
   182.50    4.477   4.367   4.306   4.201   4.300   4.228   4.323   4.358   4.490   4.405   4.247   4.206   4.261   4.334   4.454   4.466   4.265
   172.19    4.283   4.311   4.179   4.173   4.292   4.229   4.326   4.530   4.424   4.501   4.249   4.237   4.330   4.149   4.392   4.446   4.466
   161.88    4.133   4.181   4.133   4.172   4.194   4.289   4.284   4.452   4.373   4.501   4.443   4.329   4.294   4.296   4.298   4.419   4.224
   151.56    4.442   4.276   4.261   4.204   4.233   4.291   4.311   4.362   4.346   4.367   4.378   4.203   4.029   4.187   4.260   4.359   4.063
   141.25    4.736   4.300   4.317   4.333   4.296   4.312   4.296   4.273   4.301   4.245   4.139   4.303   4.119   4.360   4.289   4.227   4.172
   130.94    4.544   4.657   4.391   4.198   4.147   4.219   4.112   4.083   4.127   4.193   4.090   4.375   4.320   4.205   4.226   4.133   4.306
   120.62    4.735   4.530   4.420   4.231   4.124   4.036   4.023   3.992   4.236   4.215   4.178   4.459   4.366   4.188   4.104   4.294   4.381
   110.31    4.640   4.533   4.537   4.432   4.236   3.976   4.141   4.387   4.445   4.315   4.241   4.350   4.355   4.307   4.376   4.314   4.286
   100.00    4.528   4.548   4.293   4.337   4.423   4.393   4.276   4.432   4.275   4.309   4.375   4.171   4.215   4.315   4.345   4.306   4.296
    89.69    4.642   4.583   4.390   4.311   4.332   4.254   4.412   4.386   4.305   4.319   4.203   4.259   4.212   4.329   4.292   4.367   4.389
    79.38    4.637   4.660   4.456   4.252   4.095   4.040   4.231   4.258   4.301   4.164   4.110   4.126   4.308   4.326   4.243   4.362   4.372
    69.06    4.639   4.583   4.343   4.237   4.304   4.245   4.422   4.481   4.246   4.087   4.115   4.028   4.273   4.424   4.281   4.442   4.412
    58.75    4.596   4.371   4.410   4.465   4.422   4.540   4.439   4.237   4.285   4.087   4.012   4.215   4.355   4.329   4.356   4.577   4.401
    48.44    4.519   4.406   4.355   4.320   4.478   4.467   4.487   4.350   4.217   4.301   4.368   4.301   4.549   4.376   4.420   4.441   4.401
    38.12    4.452   4.421   4.502   4.378   4.393   4.522   4.509   4.331   4.242   4.206   4.376   4.444   4.598   4.634   4.587   4.565   4.175
    27.81    4.520   4.546   4.645   4.342   4.348   4.381   4.502   4.359   4.202   4.282   4.324   4.448   4.644   4.565   4.753   4.488   4.319
    17.50    4.581   4.398   4.632   4.528   4.500   4.328   4.455   4.328   4.364   4.354   4.393   4.366   4.615   4.847   4.834   4.571   4.369

   Height   Standard deviation at grid points for the v component:
   182.50    3.661   3.661   3.661   3.661   3.661   3.661   3.661   3.661   3.661   3.661   3.661   3.661   3.661   3.661   3.661   3.661   3.661
   172.19    3.661   3.661   3.661   3.661   3.661   3.661   3.661   3.661   3.661   3.661   3.661   3.661   3.661   3.661   3.661   3.661   3.661
   161.88    3.661   3.661   3.661   3.661   3.661   3.661   3.661   3.661   3.661   3.661   3.661   3.661   3.661   3.661   3.661   3.661   3.661
   151.56    3.661   3.661   3.661   3.661   3.661   3.661   3.661   3.661   3.661   3.661   3.661   3.661   3.661   3.661   3.661   3.661   3.661
   141.25    3.661   3.661   3.661   3.661   3.661   3.661   3.661   3.661   3.661   3.661   3.661   3.661   3.661   3.661   3.661   3.661   3.661
   130.94    3.661   3.661   3.661   3.661   3.661   3.661   3.661   3.661   3.661   3.661   3.661   3.661   3.661   3.661   3.661   3.661   3.661
   120.62    3.661   3.661   3.661   3.661   3.661   3.661   3.661   3.661   3.661   3.661   3.661   3.661   3.661   3.661   3.661   3.661   3.661
   110.31    3.661   3.661   3.661   3.661   3.661   3.661   3.661   3.661   3.661   3.661   3.661   3.661   3.661   3.661   3.661   3.661   3.661
   100.00    3.661   3.661   3.661   3.661   3.661   3.661   3.661   3.661   3.661   3.661   3.661   3.661   3.661   3.661   3.661   3.661   3.661
    89.69    3.661   3.661   3.661   3.661   3.661   3.661   3.661   3.661   3.661   3.661   3.661   3.661   3.661   3.661   3.661   3.661   3.661
    79.38    3.661   3.661   3.661   3.661   3.661   3.661   3.661   3.661   3.661   3.661   3.661   3.661   3.661   3.661   3.661   3.661   3.661
    69.06    3.661   3.661   3.661   3.661   3.661   3.661   3.661   3.661   3.661   3.661   3.661   3.661   3.661   3.661   3.661   3.661   3.661
    58.75    3.661   3.661   3.661   3.661   3.661   3.661   3.661   3.661   3.661   3.661   3.661   3.661   3.661   3.661   3.661   3.661   3.661
    48.44    3.661   3.661   3.661   3.661   3.661   3.661   3.661   3.661   3.661   3.661   3.661   3.661   3.661   3.661   3.661   3.661   3.661
    38.12    3.661   3.661   3.661   3.661   3.661   3.661   3.661   3.661   3.661   3.661   3.661   3.661   3.661   3.661   3.661   3.661   3.661
    27.81    3.661   3.661   3.661   3.661   3.661   3.661   3.661   3.661   3.661   3.661   3.661   3.661   3.661   3.661   3.661   3.661   3.661
    17.50    3.661   3.661   3.661   3.661   3.661   3.661   3.661   3.661   3.661   3.661   3.661   3.661   3.661   3.661   3.661   3.661   3.661

   Height   Standard deviation at grid points for the w component:
   182.50    2.233   2.233   2.233   2.233   2.233   2.233   2.233   2.233   2.233   2.233   2.233   2.233   2.233   2.233   2.233   2.233   2.233
   172.19    2.233   2.233   2.233   2.233   2.233   2.233   2.233   2.233   2.233   2.233   2.233   2.233   2.233   2.233   2.233   2.233   2.233
   161.88    2.233   2.233   2.233   2.233   2.233   2.233   2.233   2.233   2.233   2.233   2.233   2.233   2.233   2.233   2.233   2.233   2.233
   151.56    2.233   2.233   2.233   2.233   2.233   2.233   2.233   2.233   2.233   2.233   2.233   2.233   2.233   2.233   2.233   2.233   2.233
   141.25    2.233   2.233   2.233   2.233   2.233   2.233   2.233   2.233   2.233   2.233   2.233   2.233   2.233   2.233   2.233   2.233   2.233
   130.94    2.233   2.233   2.233   2.233   2.233   2.233   2.233   2.233   2.233   2.233   2.233   2.233   2.233   2.233   2.233   2.233   2.233
   120.62    2.233   2.233   2.233   2.233   2.233   2.233   2.233   2.233   2.233   2.233   2.233   2.233   2.233   2.233   2.233   2.233   2.233
   110.31    2.233   2.233   2.233   2.233   2.233   2.233   2.233   2.233   2.233   2.233   2.233   2.233   2.233   2.233   2.233   2.233   2.233
   100.00    2.233   2.233   2.233   2.233   2.233   2.233   2.233   2.233   2.233   2.233   2.233   2.233   2.233   2.233   2.233   2.233   2.233
    89.69    2.233   2.233   2.233   2.233   2.233   2.233   2.233   2.233   2.233   2.233   2.233   2.233   2.233   2.233   2.233   2.233   2.233
    79.38    2.233   2.233   2.233   2.233   2.233   2.233   2.233   2.233   2.233   2.233   2.233   2.233   2.233   2.233   2.233   2.233   2.233
    69.06    2.233   2.233   2.233   2.233   2.233   2.233   2.233   2.233   2.233   2.233   2.233   2.233   2.233   2.233   2.233   2.233   2.233
    58.75    2.233   2.233   2.233   2.233   2.233   2.233   2.233   2.233   2.233   2.233   2.233   2.233   2.233   2.233   2.233   2.233   2.233
    48.44    2.233   2.233   2.233   2.233   2.233   2.233   2.233   2.233   2.233   2.233   2.233   2.233   2.233   2.233   2.233   2.233   2.233
    38.12    2.233   2.233   2.233   2.233   2.233   2.233   2.233   2.233   2.233   2.233   2.233   2.233   2.233   2.233   2.233   2.233   2.233
    27.81    2.233   2.233   2.233   2.233   2.233   2.233   2.233   2.233   2.233   2.233   2.233   2.233   2.233   2.233   2.233   2.233   2.233
    17.50    2.233   2.233   2.233   2.233   2.233   2.233   2.233   2.233   2.233   2.233   2.233   2.233   2.233   2.233   2.233   2.233   2.233

   Mean standard deviation across all grid points:
      u component:    4.343 m/s
      v component:    3.661 m/s
      w component:    2.233 m/s


U-component (X) statistics from the hub grid point:

   Mean =  42.5000 m/s
   TI   =  10.0582 %


Normalizing Parameters for Binary Data (approximate statistics):

   UBar  =  42.5000 m/s
   TI(u) =  10.0582 %
   TI(v) =   8.6143 %
   TI(w) =   5.2545 %

   Height Offset =   0.0000 m
   Grid Base     =  17.5000 m

Nyquist frequency of turbulent wind field =        10.000 Hz


Processing complete.  6.5 CPU seconds used.
