
This summary file was generated by TurbSim (v1.06.00, 21-Sep-2012) on 19-Jan-2026 at 00:11:28.


Runtime Options:

      6000  Random seed #1
    RANLUX  Type of random number generator
         F  Output binary HH turbulence parameters?
         F  Output formatted turbulence parameters?
         F  Output AeroDyn HH files?
         F  Output AeroDyn FF files?
         T  Output BLADED FF files?
         T  Output tower data?
         F  Output formatted FF files?
         F  Output coherent turbulence time step file?
         T  Clockwise rotation when looking downwind?
 0 -  NONE  IEC turbulence models scaled to exact specified standard deviation


Turbine/Model Specifications:

        17  Vertical grid-point matrix dimension
        17  Horizontal grid-point matrix dimension
     0.050  Time step [seconds]
    60.000  Analysis time [seconds]
   660.000  Usable output time [seconds]
   100.000  Hub height [m]
   165.000  Grid height [m]
   165.000  Grid width [m]
     0.000  Vertical flow angle [degrees]
     0.000  Horizontal flow angle [degrees]


Meteorological Boundary Conditions:

    IECKAI  IEC Kaimal spectral model
         1  IEC standard: IEC 61400-1 Ed. 3: 2005
         A  IEC turbulence characteristic
       NTM  IEC Normal Turbulence Model
       N/A  IEC Extreme Turbulence Model (ETM) "c" parameter [m/s]
       IEC  Wind profile type
   100.000  Reference height [m]
    25.000  Reference wind speed [m/s]
       N/A  Jet height [m]
     0.200  Power law exponent
     0.030  Surface roughness length [m]


You have requested that the following file(s) be generated:

   25ms_2A.wnd (AeroDyn/BLADED full-field wnd file)
   25ms_2A.twr (Binary tower twr file)


Turbulence Simulation Scaling Parameter Summary:

   Turbulence model used                            =  IEC Kaimal
   Turbulence characteristic                        =  A
   IEC turbulence type                              =  Normal Turbulence Model
   IEC standard                                     =  IEC 61400-1 Ed. 3: 2005
   Mean wind speed at hub height                    =   25.000 m/s
   Expected value of turbulence intensity at 15 m/s =   16.000%
   Characteristic value of standard deviation       =    3.896 m/s
   Turbulence scale                                 =   42.000 m
   u-component integral scale                       =  340.200 m
   Coherency scale                                  =  340.200 m
   Characteristic value of hub turbulence intensity =   15.584%
   Gradient Richardson number                       =    0.000

   Wind profile type                                =  Power law on rotor disk, logarithmic elsewhere
   Power law exponent                               =    0.200
   Mean shear across rotor disk                     =    0.064 (m/s)/m
   Assumed rotor diameter                           =  165.000 m
   Surface roughness length                         =    0.030 m

   Number of time steps in the FFT                  =    13376
   Number of time steps output                      =    13332


Mean Flow Angles:

   Vertical   =   0.0 degrees
   Horizontal =   0.0 degrees

Mean Wind Speed Profile:

   Height    Wind Speed   Horizontal Angle  U-comp (X)   V-comp (Y)   W-comp (Z)
     (m)        (m/s)         (degrees)       (m/s)        (m/s)        (m/s)   
   ------    ----------   ----------------  ----------   ----------   ----------
    182.5       28.20            0.00         28.20         0.00         0.00
    172.2       27.87            0.00         27.87         0.00         0.00
    161.9       27.53            0.00         27.53         0.00         0.00
    151.6       27.17            0.00         27.17         0.00         0.00
    141.2       26.79            0.00         26.79         0.00         0.00
    130.9       26.38            0.00         26.38         0.00         0.00
    120.6       25.96            0.00         25.96         0.00         0.00
    110.3       25.50            0.00         25.50         0.00         0.00
    100.0       25.00            0.00         25.00         0.00         0.00
     89.7       24.46            0.00         24.46         0.00         0.00
     79.4       23.87            0.00         23.87         0.00         0.00
     69.1       23.22            0.00         23.22         0.00         0.00
     58.8       22.48            0.00         22.48         0.00         0.00
     48.4       21.63            0.00         21.63         0.00         0.00
     38.1       20.61            0.00         20.61         0.00         0.00
     27.8       19.35            0.00         19.35         0.00         0.00
     17.5       17.64            0.00         17.64         0.00         0.00
      7.2       16.89            0.00         16.89         0.00         0.00


Harvested Random Seeds after Generation of the Random Numbers:

     54064120 K1
            0 K2


Hub-Height Simulated Turbulence Statistical Summary:

   Type of Wind        Min (m/s)   Mean (m/s)    Max (m/s)  Sigma (m/s)       TI (%)
   ----------------    ---------   ----------    ---------  -----------       ------
   Longitudinal (u)        14.14        25.00        38.58        3.659       14.635
   Lateral (v)            -10.75         0.00        10.36        3.058       12.233
   Vertical (w)            -7.30         0.00         7.85        1.885        7.540
   U component             14.14        25.00        38.58        3.659       14.635
   V component            -10.75         0.00        10.36        3.058       12.233
   W component             -7.30         0.00         7.85        1.885        7.540
   Horizontal (U&V)        14.14        25.19        38.95        3.646       14.474
   Total                   14.15        25.26        38.98        3.636       14.394

                       Min Reynolds     Mean Reynolds    Max Reynolds    Correlation
   Product             Stress (m/s)^2   Stress (m/s)^2   Stress (m/s)^2  Coefficient
   ----------------    --------------   --------------   --------------  -----------
   u'w'                    -46.828            -0.101            47.512        -0.015
   u'v'                   -112.183            -0.436            86.626        -0.039
   v'w'                    -36.678            -0.129            40.426        -0.022


   Friction Velocity (Ustar)  =      0.319 m/s
   Maximum Instantaneous TKE  =    113.443 (m/s)^2
   Maximum Instantaneous CTKE =     56.104 (m/s)^2


Grid Point Variance Summary:

   Y-coord  -82.50  -72.19  -61.88  -51.56  -41.25  -30.94  -20.62  -10.31    0.00   10.31   20.62   30.94   41.25   51.56   61.88   72.19   82.50

   Height   Standard deviation at grid points for the u component:
   182.50    4.061   3.795   3.750   3.636   3.597   3.568   3.506   3.539   3.680   3.572   3.751   3.701   3.725   3.591   3.615   3.549   3.692
   172.19    4.031   3.854   3.931   3.706   3.554   3.533   3.476   3.565   3.472   3.516   3.563   3.553   3.648   3.549   3.540   3.460   3.455
   161.88    4.023   3.915   3.857   3.769   3.598   3.439   3.550   3.734   3.603   3.456   3.563   3.552   3.571   3.546   3.695   3.551   3.650
   151.56    3.828   3.950   3.997   3.898   3.583   3.524   3.527   3.699   3.655   3.628   3.679   3.677   3.438   3.730   3.571   3.601   3.628
   141.25    3.849   3.709   3.957   3.748   3.747   3.654   3.449   3.639   3.798   3.606   3.546   3.721   3.747   3.558   3.491   3.687   3.538
   130.94    3.810   3.576   3.814   3.775   3.571   3.524   3.618   3.618   3.882   3.744   3.774   3.674   3.512   3.479   3.567   3.524   3.647
   120.62    3.807   3.517   3.746   3.722   3.601   3.722   3.774   3.735   3.856   3.907   3.930   3.558   3.633   3.585   3.628   3.593   3.513
   110.31    3.768   3.453   3.722   3.729   3.583   3.756   3.733   3.724   3.753   3.909   3.885   3.770   3.677   3.650   3.451   3.485   3.553
   100.00    3.775   3.659   3.573   3.741   3.755   3.599   3.778   3.894   3.659   3.914   3.988   3.879   3.842   3.726   3.613   3.546   3.544
    89.69    3.930   3.667   3.561   3.784   3.762   3.698   3.625   3.796   3.818   4.030   4.049   4.118   3.788   3.660   3.602   3.440   3.508
    79.38    3.769   3.622   3.674   3.893   3.800   3.566   3.702   3.734   3.815   3.934   3.999   3.943   3.863   3.702   3.466   3.527   3.418
    69.06    3.644   3.578   3.698   3.815   3.861   3.843   3.863   3.734   3.710   3.854   3.940   3.880   3.877   3.747   3.553   3.498   3.481
    58.75    3.396   3.702   3.909   3.714   3.808   3.875   3.882   3.611   4.003   3.859   3.806   3.791   3.801   3.717   3.690   3.772   3.525
    48.44    3.550   3.616   3.787   3.675   3.828   3.945   3.805   3.696   3.855   3.870   4.007   3.712   3.780   3.684   3.805   3.556   3.446
    38.12    3.569   3.778   3.733   3.774   3.954   3.841   3.826   3.883   3.823   3.858   3.794   3.707   3.547   3.562   3.657   3.625   3.473
    27.81    3.718   3.849   3.851   3.726   3.954   3.934   4.060   3.891   3.590   3.715   3.635   3.616   3.468   3.478   3.619   3.621   3.606
    17.50    3.796   3.871   4.049   4.003   4.092   3.988   4.060   4.072   3.930   3.815   3.830   3.725   3.693   3.683   3.658   3.697   3.691

   Height   Standard deviation at grid points for the v component:
   182.50    3.058   3.058   3.058   3.058   3.058   3.058   3.058   3.058   3.058   3.058   3.058   3.058   3.058   3.058   3.058   3.058   3.058
   172.19    3.058   3.058   3.058   3.058   3.058   3.058   3.058   3.058   3.058   3.058   3.058   3.058   3.058   3.058   3.058   3.058   3.058
   161.88    3.058   3.058   3.058   3.058   3.058   3.058   3.058   3.058   3.058   3.058   3.058   3.058   3.058   3.058   3.058   3.058   3.058
   151.56    3.058   3.058   3.058   3.058   3.058   3.058   3.058   3.058   3.058   3.058   3.058   3.058   3.058   3.058   3.058   3.058   3.058
   141.25    3.058   3.058   3.058   3.058   3.058   3.058   3.058   3.058   3.058   3.058   3.058   3.058   3.058   3.058   3.058   3.058   3.058
   130.94    3.058   3.058   3.058   3.058   3.058   3.058   3.058   3.058   3.058   3.058   3.058   3.058   3.058   3.058   3.058   3.058   3.058
   120.62    3.058   3.058   3.058   3.058   3.058   3.058   3.058   3.058   3.058   3.058   3.058   3.058   3.058   3.058   3.058   3.058   3.058
   110.31    3.058   3.058   3.058   3.058   3.058   3.058   3.058   3.058   3.058   3.058   3.058   3.058   3.058   3.058   3.058   3.058   3.058
   100.00    3.058   3.058   3.058   3.058   3.058   3.058   3.058   3.058   3.058   3.058   3.058   3.058   3.058   3.058   3.058   3.058   3.058
    89.69    3.058   3.058   3.058   3.058   3.058   3.058   3.058   3.058   3.058   3.058   3.058   3.058   3.058   3.058   3.058   3.058   3.058
    79.38    3.058   3.058   3.058   3.058   3.058   3.058   3.058   3.058   3.058   3.058   3.058   3.058   3.058   3.058   3.058   3.058   3.058
    69.06    3.058   3.058   3.058   3.058   3.058   3.058   3.058   3.058   3.058   3.058   3.058   3.058   3.058   3.058   3.058   3.058   3.058
    58.75    3.058   3.058   3.058   3.058   3.058   3.058   3.058   3.058   3.058   3.058   3.058   3.058   3.058   3.058   3.058   3.058   3.058
    48.44    3.058   3.058   3.058   3.058   3.058   3.058   3.058   3.058   3.058   3.058   3.058   3.058   3.058   3.058   3.058   3.058   3.058
    38.12    3.058   3.058   3.058   3.058   3.058   3.058   3.058   3.058   3.058   3.058   3.058   3.058   3.058   3.058   3.058   3.058   3.058
    27.81    3.058   3.058   3.058   3.058   3.058   3.058   3.058   3.058   3.058   3.058   3.058   3.058   3.058   3.058   3.058   3.058   3.058
    17.50    3.058   3.058   3.058   3.058   3.058   3.058   3.058   3.058   3.058   3.058   3.058   3.058   3.058   3.058   3.058   3.058   3.058

   Height   Standard deviation at grid points for the w component:
   182.50    1.885   1.885   1.885   1.885   1.885   1.885   1.885   1.885   1.885   1.885   1.885   1.885   1.885   1.885   1.885   1.885   1.885
   172.19    1.885   1.885   1.885   1.885   1.885   1.885   1.885   1.885   1.885   1.885   1.885   1.885   1.885   1.885   1.885   1.885   1.885
   161.88    1.885   1.885   1.885   1.885   1.885   1.885   1.885   1.885   1.885   1.885   1.885   1.885   1.885   1.885   1.885   1.885   1.885
   151.56    1.885   1.885   1.885   1.885   1.885   1.885   1.885   1.885   1.885   1.885   1.885   1.885   1.885   1.885   1.885   1.885   1.885
   141.25    1.885   1.885   1.885   1.885   1.885   1.885   1.885   1.885   1.885   1.885   1.885   1.885   1.885   1.885   1.885   1.885   1.885
   130.94    1.885   1.885   1.885   1.885   1.885   1.885   1.885   1.885   1.885   1.885   1.885   1.885   1.885   1.885   1.885   1.885   1.885
   120.62    1.885   1.885   1.885   1.885   1.885   1.885   1.885   1.885   1.885   1.885   1.885   1.885   1.885   1.885   1.885   1.885   1.885
   110.31    1.885   1.885   1.885   1.885   1.885   1.885   1.885   1.885   1.885   1.885   1.885   1.885   1.885   1.885   1.885   1.885   1.885
   100.00    1.885   1.885   1.885   1.885   1.885   1.885   1.885   1.885   1.885   1.885   1.885   1.885   1.885   1.885   1.885   1.885   1.885
    89.69    1.885   1.885   1.885   1.885   1.885   1.885   1.885   1.885   1.885   1.885   1.885   1.885   1.885   1.885   1.885   1.885   1.885
    79.38    1.885   1.885   1.885   1.885   1.885   1.885   1.885   1.885   1.885   1.885   1.885   1.885   1.885   1.885   1.885   1.885   1.885
    69.06    1.885   1.885   1.885   1.885   1.885   1.885   1.885   1.885   1.885   1.885   1.885   1.885   1.885   1.885   1.885   1.885   1.885
    58.75    1.885   1.885   1.885   1.885   1.885   1.885   1.885   1.885   1.885   1.885   1.885   1.885   1.885   1.885   1.885   1.885   1.885
    48.44    1.885   1.885   1.885   1.885   1.885   1.885   1.885   1.885   1.885   1.885   1.885   1.885   1.885   1.885   1.885   1.885   1.885
    38.12    1.885   1.885   1.885   1.885   1.885   1.885   1.885   1.885   1.885   1.885   1.885   1.885   1.885   1.885   1.885   1.885   1.885
    27.81    1.885   1.885   1.885   1.885   1.885   1.885   1.885   1.885   1.885   1.885   1.885   1.885   1.885   1.885   1.885   1.885   1.885
    17.50    1.885   1.885   1.885   1.885   1.885   1.885   1.885   1.885   1.885   1.885   1.885   1.885   1.885   1.885   1.885   1.885   1.885

   Mean standard deviation across all grid points:
      u component:    3.711 m/s
      v component:    3.058 m/s
      w component:    1.885 m/s


U-component (X) statistics from the hub grid point:

   Mean =  25.0000 m/s
   TI   =  14.6350 %


Normalizing Parameters for Binary Data (approximate statistics):

   UBar  =  25.0000 m/s
   TI(u) =  14.6350 %
   TI(v) =  12.2333 %
   TI(w) =   7.5401 %

   Height Offset =   0.0000 m
   Grid Base     =  17.5000 m

Nyquist frequency of turbulent wind field =        10.000 Hz


Processing complete.  9.0312 CPU seconds used.
