
This summary file was generated by TurbSim (v1.06.00, 21-Sep-2012) on 19-Jan-2026 at 00:38:11.


Runtime Options:

       500  Random seed #1
    RANLUX  Type of random number generator
         F  Output binary HH turbulence parameters?
         F  Output formatted turbulence parameters?
         F  Output AeroDyn HH files?
         F  Output AeroDyn FF files?
         T  Output BLADED FF files?
         T  Output tower data?
         F  Output formatted FF files?
         F  Output coherent turbulence time step file?
         T  Clockwise rotation when looking downwind?
 0 -  NONE  IEC turbulence models scaled to exact specified standard deviation


Turbine/Model Specifications:

        17  Vertical grid-point matrix dimension
        17  Horizontal grid-point matrix dimension
     0.050  Time step [seconds]
    60.000  Analysis time [seconds]
   660.000  Usable output time [seconds]
   100.000  Hub height [m]
   165.000  Grid height [m]
   165.000  Grid width [m]
     0.000  Vertical flow angle [degrees]
     0.000  Horizontal flow angle [degrees]


Meteorological Boundary Conditions:

    IECKAI  IEC Kaimal spectral model
         1  IEC standard: IEC 61400-1 Ed. 3: 2005
         A  IEC turbulence characteristic
    2EWM50  IEC Extreme 50-Year Wind Speed Model
       N/A  IEC Extreme Turbulence Model (ETM) "c" parameter [m/s]
       IEC  Wind profile type
   100.000  Reference height [m]
       N/A  Reference wind speed [m/s]
       N/A  Jet height [m]
       N/A  Power law exponent
     0.030  Surface roughness length [m]


You have requested that the following file(s) be generated:

   42.5ms_2A.wnd (AeroDyn/BLADED full-field wnd file)
   42.5ms_2A.twr (Binary tower twr file)


Turbulence Simulation Scaling Parameter Summary:

   Turbulence model used                            =  IEC Kaimal
   Turbulence characteristic                        =  2A
   IEC turbulence type                              =  Extreme 50-Year Wind Speed Model
   Reference wind speed average over 10 minutes     =   42.500 m/s
   Annual wind speed average at hub height          =    8.500 m/s
   IEC standard                                     =  IEC 61400-1 Ed. 3: 2005
   Mean wind speed at hub height                    =   42.500 m/s
   Expected value of turbulence intensity at 15 m/s =   16.000%
   Characteristic value of standard deviation       =    4.675 m/s
   Turbulence scale                                 =   42.000 m
   u-component integral scale                       =  340.200 m
   Coherency scale                                  =  340.200 m
   Characteristic value of hub turbulence intensity =   11.000%
   Gradient Richardson number                       =    0.000

   Wind profile type                                =  Power law on rotor disk, logarithmic elsewhere
   Power law exponent                               =    0.110
   Mean shear across rotor disk                     =    0.063 (m/s)/m
   Assumed rotor diameter                           =  165.000 m
   Surface roughness length                         =    0.030 m

   Number of time steps in the FFT                  =    13300
   Number of time steps output                      =    13278


Mean Flow Angles:

   Vertical   =   0.0 degrees
   Horizontal =   0.0 degrees

Mean Wind Speed Profile:

   Height    Wind Speed   Horizontal Angle  U-comp (X)   V-comp (Y)   W-comp (Z)
     (m)        (m/s)         (degrees)       (m/s)        (m/s)        (m/s)   
   ------    ----------   ----------------  ----------   ----------   ----------
    182.5       45.41            0.00         45.41         0.00         0.00
    172.2       45.12            0.00         45.12         0.00         0.00
    161.9       44.81            0.00         44.81         0.00         0.00
    151.6       44.49            0.00         44.49         0.00         0.00
    141.2       44.15            0.00         44.15         0.00         0.00
    130.9       43.78            0.00         43.78         0.00         0.00
    120.6       43.39            0.00         43.39         0.00         0.00
    110.3       42.96            0.00         42.96         0.00         0.00
    100.0       42.50            0.00         42.50         0.00         0.00
     89.7       41.99            0.00         41.99         0.00         0.00
     79.4       41.43            0.00         41.43         0.00         0.00
     69.1       40.80            0.00         40.80         0.00         0.00
     58.8       40.08            0.00         40.08         0.00         0.00
     48.4       39.24            0.00         39.24         0.00         0.00
     38.1       38.22            0.00         38.22         0.00         0.00
     27.8       36.92            0.00         36.92         0.00         0.00
     17.5       35.09            0.00         35.09         0.00         0.00
      7.2       31.81            0.00         31.81         0.00         0.00


Harvested Random Seeds after Generation of the Random Numbers:

     53756838 K1
            0 K2


Hub-Height Simulated Turbulence Statistical Summary:

   Type of Wind        Min (m/s)   Mean (m/s)    Max (m/s)  Sigma (m/s)       TI (%)
   ----------------    ---------   ----------    ---------  -----------       ------
   Longitudinal (u)        23.80        42.50        62.31        4.755       11.189
   Lateral (v)            -12.72         0.00        13.15        3.661        8.614
   Vertical (w)            -9.77         0.00         9.81        2.233        5.255
   U component             23.80        42.50        62.31        4.755       11.189
   V component            -12.72         0.00        13.15        3.661        8.614
   W component             -9.77         0.00         9.81        2.233        5.255
   Horizontal (U&V)        23.80        42.66        62.66        4.755       11.147
   Total                   23.80        42.72        62.66        4.743       11.104

                       Min Reynolds     Mean Reynolds    Max Reynolds    Correlation
   Product             Stress (m/s)^2   Stress (m/s)^2   Stress (m/s)^2  Coefficient
   ----------------    --------------   --------------   --------------  -----------
   u'w'                   -102.997            -0.833            98.028        -0.078
   u'v'                   -120.179             0.789           202.814         0.045
   v'w'                    -79.725            -0.183            73.170        -0.022


   Friction Velocity (Ustar)  =      0.913 m/s
   Maximum Instantaneous TKE  =    225.317 (m/s)^2
   Maximum Instantaneous CTKE =    101.467 (m/s)^2


Grid Point Variance Summary:

   Y-coord  -82.50  -72.19  -61.88  -51.56  -41.25  -30.94  -20.62  -10.31    0.00   10.31   20.62   30.94   41.25   51.56   61.88   72.19   82.50

   Height   Standard deviation at grid points for the u component:
   182.50    4.611   4.613   4.508   4.468   4.435   4.315   4.504   4.574   4.615   4.666   4.947   4.924   4.764   4.864   4.996   4.889   4.738
   172.19    4.705   4.673   4.502   4.419   4.531   4.459   4.557   4.270   4.492   4.608   4.727   4.864   4.871   4.888   5.116   5.021   4.773
   161.88    4.592   4.644   4.396   4.547   4.628   4.504   4.632   4.307   4.426   4.439   4.592   4.836   4.908   5.059   4.845   4.877   4.908
   151.56    4.733   4.652   4.425   4.462   4.558   4.630   4.541   4.673   4.606   4.713   4.462   4.711   4.894   4.920   4.940   5.296   5.170
   141.25    4.681   4.741   4.639   4.518   4.785   4.673   4.674   4.552   4.610   4.512   4.495   4.716   4.791   4.899   5.159   5.361   5.449
   130.94    4.777   4.858   4.595   4.532   4.820   4.952   4.547   4.625   4.670   4.653   4.695   4.605   4.933   4.994   5.198   5.260   5.195
   120.62    4.854   4.816   4.784   4.589   4.669   4.843   4.629   4.762   4.819   4.711   4.942   4.922   4.994   5.203   5.032   4.998   5.014
   110.31    4.819   4.732   4.548   4.626   4.610   4.509   4.700   4.771   4.719   4.718   4.937   5.022   5.156   5.143   5.354   5.157   5.037
   100.00    4.908   4.850   4.713   4.564   4.459   4.549   4.663   4.867   4.755   4.854   4.991   4.889   4.983   5.092   5.293   5.210   5.173
    89.69    4.770   4.756   4.568   4.639   4.755   4.736   4.783   4.757   4.723   4.812   4.963   4.679   4.891   5.113   5.287   5.278   5.019
    79.38    4.765   4.615   4.597   4.698   4.874   4.838   4.647   4.416   4.669   4.744   4.725   4.871   4.948   4.944   5.101   5.205   5.130
    69.06    4.715   4.572   4.519   4.652   4.704   4.622   4.758   4.701   4.707   4.615   4.718   4.760   4.963   4.927   5.044   5.214   5.070
    58.75    4.858   4.728   4.766   4.681   4.604   4.699   4.575   4.718   4.596   4.743   4.866   4.824   4.795   5.142   5.076   5.038   4.952
    48.44    4.825   4.523   4.615   4.570   4.494   4.673   4.688   4.672   4.727   4.673   4.644   4.643   4.722   4.949   5.046   4.767   4.797
    38.12    4.661   4.768   4.667   4.528   4.728   4.790   4.740   4.856   4.817   4.675   4.746   4.477   4.546   4.896   5.153   4.717   4.767
    27.81    4.720   4.646   4.615   4.508   4.685   4.904   4.774   4.877   4.900   4.801   4.699   4.602   4.861   4.915   4.881   4.887   4.570
    17.50    4.581   4.695   4.555   4.558   4.712   4.865   5.015   4.814   4.666   4.738   4.760   4.675   4.856   4.859   4.673   4.725   4.511

   Height   Standard deviation at grid points for the v component:
   182.50    3.661   3.661   3.661   3.661   3.661   3.661   3.661   3.661   3.661   3.661   3.661   3.661   3.661   3.661   3.661   3.661   3.661
   172.19    3.661   3.661   3.661   3.661   3.661   3.661   3.661   3.661   3.661   3.661   3.661   3.661   3.661   3.661   3.661   3.661   3.661
   161.88    3.661   3.661   3.661   3.661   3.661   3.661   3.661   3.661   3.661   3.661   3.661   3.661   3.661   3.661   3.661   3.661   3.661
   151.56    3.661   3.661   3.661   3.661   3.661   3.661   3.661   3.661   3.661   3.661   3.661   3.661   3.661   3.661   3.661   3.661   3.661
   141.25    3.661   3.661   3.661   3.661   3.661   3.661   3.661   3.661   3.661   3.661   3.661   3.661   3.661   3.661   3.661   3.661   3.661
   130.94    3.661   3.661   3.661   3.661   3.661   3.661   3.661   3.661   3.661   3.661   3.661   3.661   3.661   3.661   3.661   3.661   3.661
   120.62    3.661   3.661   3.661   3.661   3.661   3.661   3.661   3.661   3.661   3.661   3.661   3.661   3.661   3.661   3.661   3.661   3.661
   110.31    3.661   3.661   3.661   3.661   3.661   3.661   3.661   3.661   3.661   3.661   3.661   3.661   3.661   3.661   3.661   3.661   3.661
   100.00    3.661   3.661   3.661   3.661   3.661   3.661   3.661   3.661   3.661   3.661   3.661   3.661   3.661   3.661   3.661   3.661   3.661
    89.69    3.661   3.661   3.661   3.661   3.661   3.661   3.661   3.661   3.661   3.661   3.661   3.661   3.661   3.661   3.661   3.661   3.661
    79.38    3.661   3.661   3.661   3.661   3.661   3.661   3.661   3.661   3.661   3.661   3.661   3.661   3.661   3.661   3.661   3.661   3.661
    69.06    3.661   3.661   3.661   3.661   3.661   3.661   3.661   3.661   3.661   3.661   3.661   3.661   3.661   3.661   3.661   3.661   3.661
    58.75    3.661   3.661   3.661   3.661   3.661   3.661   3.661   3.661   3.661   3.661   3.661   3.661   3.661   3.661   3.661   3.661   3.661
    48.44    3.661   3.661   3.661   3.661   3.661   3.661   3.661   3.661   3.661   3.661   3.661   3.661   3.661   3.661   3.661   3.661   3.661
    38.12    3.661   3.661   3.661   3.661   3.661   3.661   3.661   3.661   3.661   3.661   3.661   3.661   3.661   3.661   3.661   3.661   3.661
    27.81    3.661   3.661   3.661   3.661   3.661   3.661   3.661   3.661   3.661   3.661   3.661   3.661   3.661   3.661   3.661   3.661   3.661
    17.50    3.661   3.661   3.661   3.661   3.661   3.661   3.661   3.661   3.661   3.661   3.661   3.661   3.661   3.661   3.661   3.661   3.661

   Height   Standard deviation at grid points for the w component:
   182.50    2.233   2.233   2.233   2.233   2.233   2.233   2.233   2.233   2.233   2.233   2.233   2.233   2.233   2.233   2.233   2.233   2.233
   172.19    2.233   2.233   2.233   2.233   2.233   2.233   2.233   2.233   2.233   2.233   2.233   2.233   2.233   2.233   2.233   2.233   2.233
   161.88    2.233   2.233   2.233   2.233   2.233   2.233   2.233   2.233   2.233   2.233   2.233   2.233   2.233   2.233   2.233   2.233   2.233
   151.56    2.233   2.233   2.233   2.233   2.233   2.233   2.233   2.233   2.233   2.233   2.233   2.233   2.233   2.233   2.233   2.233   2.233
   141.25    2.233   2.233   2.233   2.233   2.233   2.233   2.233   2.233   2.233   2.233   2.233   2.233   2.233   2.233   2.233   2.233   2.233
   130.94    2.233   2.233   2.233   2.233   2.233   2.233   2.233   2.233   2.233   2.233   2.233   2.233   2.233   2.233   2.233   2.233   2.233
   120.62    2.233   2.233   2.233   2.233   2.233   2.233   2.233   2.233   2.233   2.233   2.233   2.233   2.233   2.233   2.233   2.233   2.233
   110.31    2.233   2.233   2.233   2.233   2.233   2.233   2.233   2.233   2.233   2.233   2.233   2.233   2.233   2.233   2.233   2.233   2.233
   100.00    2.233   2.233   2.233   2.233   2.233   2.233   2.233   2.233   2.233   2.233   2.233   2.233   2.233   2.233   2.233   2.233   2.233
    89.69    2.233   2.233   2.233   2.233   2.233   2.233   2.233   2.233   2.233   2.233   2.233   2.233   2.233   2.233   2.233   2.233   2.233
    79.38    2.233   2.233   2.233   2.233   2.233   2.233   2.233   2.233   2.233   2.233   2.233   2.233   2.233   2.233   2.233   2.233   2.233
    69.06    2.233   2.233   2.233   2.233   2.233   2.233   2.233   2.233   2.233   2.233   2.233   2.233   2.233   2.233   2.233   2.233   2.233
    58.75    2.233   2.233   2.233   2.233   2.233   2.233   2.233   2.233   2.233   2.233   2.233   2.233   2.233   2.233   2.233   2.233   2.233
    48.44    2.233   2.233   2.233   2.233   2.233   2.233   2.233   2.233   2.233   2.233   2.233   2.233   2.233   2.233   2.233   2.233   2.233
    38.12    2.233   2.233   2.233   2.233   2.233   2.233   2.233   2.233   2.233   2.233   2.233   2.233   2.233   2.233   2.233   2.233   2.233
    27.81    2.233   2.233   2.233   2.233   2.233   2.233   2.233   2.233   2.233   2.233   2.233   2.233   2.233   2.233   2.233   2.233   2.233
    17.50    2.233   2.233   2.233   2.233   2.233   2.233   2.233   2.233   2.233   2.233   2.233   2.233   2.233   2.233   2.233   2.233   2.233

   Mean standard deviation across all grid points:
      u component:    4.770 m/s
      v component:    3.661 m/s
      w component:    2.233 m/s


U-component (X) statistics from the hub grid point:

   Mean =  42.5000 m/s
   TI   =  11.1889 %


Normalizing Parameters for Binary Data (approximate statistics):

   UBar  =  42.5000 m/s
   TI(u) =  11.1889 %
   TI(v) =   8.6143 %
   TI(w) =   5.2545 %

   Height Offset =   0.0000 m
   Grid Base     =  17.5000 m

Nyquist frequency of turbulent wind field =        10.000 Hz


Processing complete.  6.4844 CPU seconds used.
