
This summary file was generated by TurbSim (v1.06.00, 21-Sep-2012) on 21-Dec-2025 at 12:12:31.


Runtime Options:

   2567890  Random seed #1
    RANLUX  Type of random number generator
         F  Output binary HH turbulence parameters?
         F  Output formatted turbulence parameters?
         F  Output AeroDyn HH files?
         F  Output AeroDyn FF files?
         T  Output BLADED FF files?
         T  Output tower data?
         F  Output formatted FF files?
         F  Output coherent turbulence time step file?
         T  Clockwise rotation when looking downwind?
 2 -   ALL  IEC turbulence models scaled to exact specified standard deviation


Turbine/Model Specifications:

        17  Vertical grid-point matrix dimension
        17  Horizontal grid-point matrix dimension
     0.050  Time step [seconds]
    60.000  Analysis time [seconds]
   660.000  Usable output time [seconds]
   100.000  Hub height [m]
   165.000  Grid height [m]
   165.000  Grid width [m]
     0.000  Vertical flow angle [degrees]
     0.000  Horizontal flow angle [degrees]


Meteorological Boundary Conditions:

    IECKAI  IEC Kaimal spectral model
         1  IEC standard: IEC 61400-1 Ed. 3: 2005
         A  IEC turbulence characteristic
       NTM  IEC Normal Turbulence Model
       N/A  IEC Extreme Turbulence Model (ETM) "c" parameter [m/s]
       IEC  Wind profile type
   100.000  Reference height [m]
    25.000  Reference wind speed [m/s]
       N/A  Jet height [m]
     0.200  Power law exponent
     0.030  Surface roughness length [m]


You have requested that the following file(s) be generated:

   25ms_2A.wnd (AeroDyn/BLADED full-field wnd file)
   25ms_2A.twr (Binary tower twr file)


Turbulence Simulation Scaling Parameter Summary:

   Turbulence model used                            =  IEC Kaimal
   Turbulence characteristic                        =  A
   IEC turbulence type                              =  Normal Turbulence Model
   IEC standard                                     =  IEC 61400-1 Ed. 3: 2005
   Mean wind speed at hub height                    =   25.000 m/s
   Expected value of turbulence intensity at 15 m/s =   16.000%
   Characteristic value of standard deviation       =    3.896 m/s
   Turbulence scale                                 =   42.000 m
   u-component integral scale                       =  340.200 m
   Coherency scale                                  =  340.200 m
   Characteristic value of hub turbulence intensity =   15.584%
   Gradient Richardson number                       =    0.000

   Wind profile type                                =  Power law on rotor disk, logarithmic elsewhere
   Power law exponent                               =    0.200
   Mean shear across rotor disk                     =    0.064 (m/s)/m
   Assumed rotor diameter                           =  165.000 m
   Surface roughness length                         =    0.030 m

   Number of time steps in the FFT                  =    13376
   Number of time steps output                      =    13332


Mean Flow Angles:

   Vertical   =   0.0 degrees
   Horizontal =   0.0 degrees

Mean Wind Speed Profile:

   Height    Wind Speed   Horizontal Angle  U-comp (X)   V-comp (Y)   W-comp (Z)
     (m)        (m/s)         (degrees)       (m/s)        (m/s)        (m/s)   
   ------    ----------   ----------------  ----------   ----------   ----------
    182.5       28.20            0.00         28.20         0.00         0.00
    172.2       27.87            0.00         27.87         0.00         0.00
    161.9       27.53            0.00         27.53         0.00         0.00
    151.6       27.17            0.00         27.17         0.00         0.00
    141.2       26.79            0.00         26.79         0.00         0.00
    130.9       26.38            0.00         26.38         0.00         0.00
    120.6       25.96            0.00         25.96         0.00         0.00
    110.3       25.50            0.00         25.50         0.00         0.00
    100.0       25.00            0.00         25.00         0.00         0.00
     89.7       24.46            0.00         24.46         0.00         0.00
     79.4       23.87            0.00         23.87         0.00         0.00
     69.1       23.22            0.00         23.22         0.00         0.00
     58.8       22.48            0.00         22.48         0.00         0.00
     48.4       21.63            0.00         21.63         0.00         0.00
     38.1       20.61            0.00         20.61         0.00         0.00
     27.8       19.35            0.00         19.35         0.00         0.00
     17.5       17.64            0.00         17.64         0.00         0.00
      7.2       16.89            0.00         16.89         0.00         0.00


Harvested Random Seeds after Generation of the Random Numbers:

     54064120 K1
            0 K2


Scaling statistics from the hub grid point:

  Component  Target Sigma (m/s)  Simulated Sigma (m/s)  Scaling Factor
  ---------  ------------------  ---------------------  --------------
     u'             3.896                3.459                1.126
     v'             3.117                3.058                1.019
     w'             1.948                1.885                1.033


Hub-Height Simulated Turbulence Statistical Summary:

   Type of Wind        Min (m/s)   Mean (m/s)    Max (m/s)  Sigma (m/s)       TI (%)
   ----------------    ---------   ----------    ---------  -----------       ------
   Longitudinal (u)        12.11        25.00        37.90        3.896       15.584
   Lateral (v)            -13.17         0.00        11.00        3.117       12.467
   Vertical (w)            -7.16         0.00         7.13        1.948        7.792
   U component             12.11        25.00        37.90        3.896       15.584
   V component            -13.17         0.00        11.00        3.117       12.467
   W component             -7.16         0.00         7.13        1.948        7.792
   Horizontal (U&V)        12.27        25.20        38.03        3.874       15.376
   Total                   12.38        25.27        38.05        3.871       15.318

                       Min Reynolds     Mean Reynolds    Max Reynolds    Correlation
   Product             Stress (m/s)^2   Stress (m/s)^2   Stress (m/s)^2  Coefficient
   ----------------    --------------   --------------   --------------  -----------
   u'w'                    -58.647            -0.290            49.930        -0.038
   u'v'                    -61.376             0.168            82.783         0.014
   v'w'                    -37.883             0.268            37.368         0.044


   Friction Velocity (Ustar)  =      0.538 m/s
   Maximum Instantaneous TKE  =     97.619 (m/s)^2
   Maximum Instantaneous CTKE =     41.489 (m/s)^2


Grid Point Variance Summary:

   Y-coord  -82.50  -72.19  -61.88  -51.56  -41.25  -30.94  -20.62  -10.31    0.00   10.31   20.62   30.94   41.25   51.56   61.88   72.19   82.50

   Height   Standard deviation at grid points for the u component:
   182.50    3.896   3.896   3.896   3.896   3.896   3.896   3.896   3.896   3.896   3.896   3.896   3.896   3.896   3.896   3.896   3.896   3.896
   172.19    3.896   3.896   3.896   3.896   3.896   3.896   3.896   3.896   3.896   3.896   3.896   3.896   3.896   3.896   3.896   3.896   3.896
   161.88    3.896   3.896   3.896   3.896   3.896   3.896   3.896   3.896   3.896   3.896   3.896   3.896   3.896   3.896   3.896   3.896   3.896
   151.56    3.896   3.896   3.896   3.896   3.896   3.896   3.896   3.896   3.896   3.896   3.896   3.896   3.896   3.896   3.896   3.896   3.896
   141.25    3.896   3.896   3.896   3.896   3.896   3.896   3.896   3.896   3.896   3.896   3.896   3.896   3.896   3.896   3.896   3.896   3.896
   130.94    3.896   3.896   3.896   3.896   3.896   3.896   3.896   3.896   3.896   3.896   3.896   3.896   3.896   3.896   3.896   3.896   3.896
   120.62    3.896   3.896   3.896   3.896   3.896   3.896   3.896   3.896   3.896   3.896   3.896   3.896   3.896   3.896   3.896   3.896   3.896
   110.31    3.896   3.896   3.896   3.896   3.896   3.896   3.896   3.896   3.896   3.896   3.896   3.896   3.896   3.896   3.896   3.896   3.896
   100.00    3.896   3.896   3.896   3.896   3.896   3.896   3.896   3.896   3.896   3.896   3.896   3.896   3.896   3.896   3.896   3.896   3.896
    89.69    3.896   3.896   3.896   3.896   3.896   3.896   3.896   3.896   3.896   3.896   3.896   3.896   3.896   3.896   3.896   3.896   3.896
    79.38    3.896   3.896   3.896   3.896   3.896   3.896   3.896   3.896   3.896   3.896   3.896   3.896   3.896   3.896   3.896   3.896   3.896
    69.06    3.896   3.896   3.896   3.896   3.896   3.896   3.896   3.896   3.896   3.896   3.896   3.896   3.896   3.896   3.896   3.896   3.896
    58.75    3.896   3.896   3.896   3.896   3.896   3.896   3.896   3.896   3.896   3.896   3.896   3.896   3.896   3.896   3.896   3.896   3.896
    48.44    3.896   3.896   3.896   3.896   3.896   3.896   3.896   3.896   3.896   3.896   3.896   3.896   3.896   3.896   3.896   3.896   3.896
    38.12    3.896   3.896   3.896   3.896   3.896   3.896   3.896   3.896   3.896   3.896   3.896   3.896   3.896   3.896   3.896   3.896   3.896
    27.81    3.896   3.896   3.896   3.896   3.896   3.896   3.896   3.896   3.896   3.896   3.896   3.896   3.896   3.896   3.896   3.896   3.896
    17.50    3.896   3.896   3.896   3.896   3.896   3.896   3.896   3.896   3.896   3.896   3.896   3.896   3.896   3.896   3.896   3.896   3.896

   Height   Standard deviation at grid points for the v component:
   182.50    3.117   3.117   3.117   3.117   3.117   3.117   3.117   3.117   3.117   3.117   3.117   3.117   3.117   3.117   3.117   3.117   3.117
   172.19    3.117   3.117   3.117   3.117   3.117   3.117   3.117   3.117   3.117   3.117   3.117   3.117   3.117   3.117   3.117   3.117   3.117
   161.88    3.117   3.117   3.117   3.117   3.117   3.117   3.117   3.117   3.117   3.117   3.117   3.117   3.117   3.117   3.117   3.117   3.117
   151.56    3.117   3.117   3.117   3.117   3.117   3.117   3.117   3.117   3.117   3.117   3.117   3.117   3.117   3.117   3.117   3.117   3.117
   141.25    3.117   3.117   3.117   3.117   3.117   3.117   3.117   3.117   3.117   3.117   3.117   3.117   3.117   3.117   3.117   3.117   3.117
   130.94    3.117   3.117   3.117   3.117   3.117   3.117   3.117   3.117   3.117   3.117   3.117   3.117   3.117   3.117   3.117   3.117   3.117
   120.62    3.117   3.117   3.117   3.117   3.117   3.117   3.117   3.117   3.117   3.117   3.117   3.117   3.117   3.117   3.117   3.117   3.117
   110.31    3.117   3.117   3.117   3.117   3.117   3.117   3.117   3.117   3.117   3.117   3.117   3.117   3.117   3.117   3.117   3.117   3.117
   100.00    3.117   3.117   3.117   3.117   3.117   3.117   3.117   3.117   3.117   3.117   3.117   3.117   3.117   3.117   3.117   3.117   3.117
    89.69    3.117   3.117   3.117   3.117   3.117   3.117   3.117   3.117   3.117   3.117   3.117   3.117   3.117   3.117   3.117   3.117   3.117
    79.38    3.117   3.117   3.117   3.117   3.117   3.117   3.117   3.117   3.117   3.117   3.117   3.117   3.117   3.117   3.117   3.117   3.117
    69.06    3.117   3.117   3.117   3.117   3.117   3.117   3.117   3.117   3.117   3.117   3.117   3.117   3.117   3.117   3.117   3.117   3.117
    58.75    3.117   3.117   3.117   3.117   3.117   3.117   3.117   3.117   3.117   3.117   3.117   3.117   3.117   3.117   3.117   3.117   3.117
    48.44    3.117   3.117   3.117   3.117   3.117   3.117   3.117   3.117   3.117   3.117   3.117   3.117   3.117   3.117   3.117   3.117   3.117
    38.12    3.117   3.117   3.117   3.117   3.117   3.117   3.117   3.117   3.117   3.117   3.117   3.117   3.117   3.117   3.117   3.117   3.117
    27.81    3.117   3.117   3.117   3.117   3.117   3.117   3.117   3.117   3.117   3.117   3.117   3.117   3.117   3.117   3.117   3.117   3.117
    17.50    3.117   3.117   3.117   3.117   3.117   3.117   3.117   3.117   3.117   3.117   3.117   3.117   3.117   3.117   3.117   3.117   3.117

   Height   Standard deviation at grid points for the w component:
   182.50    1.948   1.948   1.948   1.948   1.948   1.948   1.948   1.948   1.948   1.948   1.948   1.948   1.948   1.948   1.948   1.948   1.948
   172.19    1.948   1.948   1.948   1.948   1.948   1.948   1.948   1.948   1.948   1.948   1.948   1.948   1.948   1.948   1.948   1.948   1.948
   161.88    1.948   1.948   1.948   1.948   1.948   1.948   1.948   1.948   1.948   1.948   1.948   1.948   1.948   1.948   1.948   1.948   1.948
   151.56    1.948   1.948   1.948   1.948   1.948   1.948   1.948   1.948   1.948   1.948   1.948   1.948   1.948   1.948   1.948   1.948   1.948
   141.25    1.948   1.948   1.948   1.948   1.948   1.948   1.948   1.948   1.948   1.948   1.948   1.948   1.948   1.948   1.948   1.948   1.948
   130.94    1.948   1.948   1.948   1.948   1.948   1.948   1.948   1.948   1.948   1.948   1.948   1.948   1.948   1.948   1.948   1.948   1.948
   120.62    1.948   1.948   1.948   1.948   1.948   1.948   1.948   1.948   1.948   1.948   1.948   1.948   1.948   1.948   1.948   1.948   1.948
   110.31    1.948   1.948   1.948   1.948   1.948   1.948   1.948   1.948   1.948   1.948   1.948   1.948   1.948   1.948   1.948   1.948   1.948
   100.00    1.948   1.948   1.948   1.948   1.948   1.948   1.948   1.948   1.948   1.948   1.948   1.948   1.948   1.948   1.948   1.948   1.948
    89.69    1.948   1.948   1.948   1.948   1.948   1.948   1.948   1.948   1.948   1.948   1.948   1.948   1.948   1.948   1.948   1.948   1.948
    79.38    1.948   1.948   1.948   1.948   1.948   1.948   1.948   1.948   1.948   1.948   1.948   1.948   1.948   1.948   1.948   1.948   1.948
    69.06    1.948   1.948   1.948   1.948   1.948   1.948   1.948   1.948   1.948   1.948   1.948   1.948   1.948   1.948   1.948   1.948   1.948
    58.75    1.948   1.948   1.948   1.948   1.948   1.948   1.948   1.948   1.948   1.948   1.948   1.948   1.948   1.948   1.948   1.948   1.948
    48.44    1.948   1.948   1.948   1.948   1.948   1.948   1.948   1.948   1.948   1.948   1.948   1.948   1.948   1.948   1.948   1.948   1.948
    38.12    1.948   1.948   1.948   1.948   1.948   1.948   1.948   1.948   1.948   1.948   1.948   1.948   1.948   1.948   1.948   1.948   1.948
    27.81    1.948   1.948   1.948   1.948   1.948   1.948   1.948   1.948   1.948   1.948   1.948   1.948   1.948   1.948   1.948   1.948   1.948
    17.50    1.948   1.948   1.948   1.948   1.948   1.948   1.948   1.948   1.948   1.948   1.948   1.948   1.948   1.948   1.948   1.948   1.948

   Mean standard deviation across all grid points:
      u component:    3.896 m/s
      v component:    3.117 m/s
      w component:    1.948 m/s


U-component (X) statistics from the hub grid point:

   Mean =  25.0000 m/s
   TI   =  15.5840 %


Normalizing Parameters for Binary Data (approximate statistics):

   UBar  =  25.0000 m/s
   TI(u) =  15.5840 %
   TI(v) =  12.4672 %
   TI(w) =   7.7920 %

   Height Offset =   0.0000 m
   Grid Base     =  17.5000 m

Nyquist frequency of turbulent wind field =        10.000 Hz


Processing complete.  6.7031 CPU seconds used.
