
This summary file was generated by TurbSim (v1.06.00, 21-Sep-2012) on 21-Dec-2025 at 12:04:23.


Runtime Options:

   2567890  Random seed #1
    RANLUX  Type of random number generator
         F  Output binary HH turbulence parameters?
         F  Output formatted turbulence parameters?
         F  Output AeroDyn HH files?
         F  Output AeroDyn FF files?
         T  Output BLADED FF files?
         T  Output tower data?
         F  Output formatted FF files?
         F  Output coherent turbulence time step file?
         T  Clockwise rotation when looking downwind?
 2 -   ALL  IEC turbulence models scaled to exact specified standard deviation


Turbine/Model Specifications:

        17  Vertical grid-point matrix dimension
        17  Horizontal grid-point matrix dimension
     0.050  Time step [seconds]
    60.000  Analysis time [seconds]
   660.000  Usable output time [seconds]
   100.000  Hub height [m]
   165.000  Grid height [m]
   165.000  Grid width [m]
     0.000  Vertical flow angle [degrees]
     0.000  Horizontal flow angle [degrees]


Meteorological Boundary Conditions:

    IECKAI  IEC Kaimal spectral model
         1  IEC standard: IEC 61400-1 Ed. 3: 2005
         A  IEC turbulence characteristic
       NTM  IEC Normal Turbulence Model
       N/A  IEC Extreme Turbulence Model (ETM) "c" parameter [m/s]
       IEC  Wind profile type
   100.000  Reference height [m]
    21.000  Reference wind speed [m/s]
       N/A  Jet height [m]
     0.200  Power law exponent
     0.030  Surface roughness length [m]


You have requested that the following file(s) be generated:

   21ms_2A.wnd (AeroDyn/BLADED full-field wnd file)
   21ms_2A.twr (Binary tower twr file)


Turbulence Simulation Scaling Parameter Summary:

   Turbulence model used                            =  IEC Kaimal
   Turbulence characteristic                        =  A
   IEC turbulence type                              =  Normal Turbulence Model
   IEC standard                                     =  IEC 61400-1 Ed. 3: 2005
   Mean wind speed at hub height                    =   21.000 m/s
   Expected value of turbulence intensity at 15 m/s =   16.000%
   Characteristic value of standard deviation       =    3.416 m/s
   Turbulence scale                                 =   42.000 m
   u-component integral scale                       =  340.200 m
   Coherency scale                                  =  340.200 m
   Characteristic value of hub turbulence intensity =   16.267%
   Gradient Richardson number                       =    0.000

   Wind profile type                                =  Power law on rotor disk, logarithmic elsewhere
   Power law exponent                               =    0.200
   Mean shear across rotor disk                     =    0.054 (m/s)/m
   Assumed rotor diameter                           =  165.000 m
   Surface roughness length                         =    0.030 m

   Number of time steps in the FFT                  =    13376
   Number of time steps output                      =    13358


Mean Flow Angles:

   Vertical   =   0.0 degrees
   Horizontal =   0.0 degrees

Mean Wind Speed Profile:

   Height    Wind Speed   Horizontal Angle  U-comp (X)   V-comp (Y)   W-comp (Z)
     (m)        (m/s)         (degrees)       (m/s)        (m/s)        (m/s)   
   ------    ----------   ----------------  ----------   ----------   ----------
    182.5       23.68            0.00         23.68         0.00         0.00
    172.2       23.41            0.00         23.41         0.00         0.00
    161.9       23.12            0.00         23.12         0.00         0.00
    151.6       22.82            0.00         22.82         0.00         0.00
    141.2       22.50            0.00         22.50         0.00         0.00
    130.9       22.16            0.00         22.16         0.00         0.00
    120.6       21.80            0.00         21.80         0.00         0.00
    110.3       21.42            0.00         21.42         0.00         0.00
    100.0       21.00            0.00         21.00         0.00         0.00
     89.7       20.55            0.00         20.55         0.00         0.00
     79.4       20.05            0.00         20.05         0.00         0.00
     69.1       19.50            0.00         19.50         0.00         0.00
     58.8       18.88            0.00         18.88         0.00         0.00
     48.4       18.17            0.00         18.17         0.00         0.00
     38.1       17.32            0.00         17.32         0.00         0.00
     27.8       16.26            0.00         16.26         0.00         0.00
     17.5       14.82            0.00         14.82         0.00         0.00
      7.2       14.18            0.00         14.18         0.00         0.00


Harvested Random Seeds after Generation of the Random Numbers:

     54064120 K1
            0 K2


Scaling statistics from the hub grid point:

  Component  Target Sigma (m/s)  Simulated Sigma (m/s)  Scaling Factor
  ---------  ------------------  ---------------------  --------------
     u'             3.416                2.968                1.151
     v'             2.733                2.682                1.019
     w'             1.708                1.658                1.030


Hub-Height Simulated Turbulence Statistical Summary:

   Type of Wind        Min (m/s)   Mean (m/s)    Max (m/s)  Sigma (m/s)       TI (%)
   ----------------    ---------   ----------    ---------  -----------       ------
   Longitudinal (u)         9.76        21.00        32.49        3.416       16.267
   Lateral (v)            -11.40         0.00         9.62        2.733       13.013
   Vertical (w)            -6.24         0.00         6.19        1.708        8.133
   U component              9.76        21.00        32.49        3.416       16.267
   V component            -11.40         0.00         9.62        2.733       13.013
   W component             -6.24         0.00         6.19        1.708        8.133
   Horizontal (U&V)         9.90        21.18        32.60        3.393       16.021
   Total                   10.01        21.25        32.62        3.391       15.956

                       Min Reynolds     Mean Reynolds    Max Reynolds    Correlation
   Product             Stress (m/s)^2   Stress (m/s)^2   Stress (m/s)^2  Coefficient
   ----------------    --------------   --------------   --------------  -----------
   u'w'                    -45.701            -0.242            35.983        -0.042
   u'v'                    -44.411             0.080            61.481         0.009
   v'w'                    -28.128             0.201            28.593         0.043


   Friction Velocity (Ustar)  =      0.492 m/s
   Maximum Instantaneous TKE  =     73.389 (m/s)^2
   Maximum Instantaneous CTKE =     32.152 (m/s)^2


Grid Point Variance Summary:

   Y-coord  -82.50  -72.19  -61.88  -51.56  -41.25  -30.94  -20.62  -10.31    0.00   10.31   20.62   30.94   41.25   51.56   61.88   72.19   82.50

   Height   Standard deviation at grid points for the u component:
   182.50    3.416   3.416   3.416   3.416   3.416   3.416   3.416   3.416   3.416   3.416   3.416   3.416   3.416   3.416   3.416   3.416   3.416
   172.19    3.416   3.416   3.416   3.416   3.416   3.416   3.416   3.416   3.416   3.416   3.416   3.416   3.416   3.416   3.416   3.416   3.416
   161.88    3.416   3.416   3.416   3.416   3.416   3.416   3.416   3.416   3.416   3.416   3.416   3.416   3.416   3.416   3.416   3.416   3.416
   151.56    3.416   3.416   3.416   3.416   3.416   3.416   3.416   3.416   3.416   3.416   3.416   3.416   3.416   3.416   3.416   3.416   3.416
   141.25    3.416   3.416   3.416   3.416   3.416   3.416   3.416   3.416   3.416   3.416   3.416   3.416   3.416   3.416   3.416   3.416   3.416
   130.94    3.416   3.416   3.416   3.416   3.416   3.416   3.416   3.416   3.416   3.416   3.416   3.416   3.416   3.416   3.416   3.416   3.416
   120.62    3.416   3.416   3.416   3.416   3.416   3.416   3.416   3.416   3.416   3.416   3.416   3.416   3.416   3.416   3.416   3.416   3.416
   110.31    3.416   3.416   3.416   3.416   3.416   3.416   3.416   3.416   3.416   3.416   3.416   3.416   3.416   3.416   3.416   3.416   3.416
   100.00    3.416   3.416   3.416   3.416   3.416   3.416   3.416   3.416   3.416   3.416   3.416   3.416   3.416   3.416   3.416   3.416   3.416
    89.69    3.416   3.416   3.416   3.416   3.416   3.416   3.416   3.416   3.416   3.416   3.416   3.416   3.416   3.416   3.416   3.416   3.416
    79.38    3.416   3.416   3.416   3.416   3.416   3.416   3.416   3.416   3.416   3.416   3.416   3.416   3.416   3.416   3.416   3.416   3.416
    69.06    3.416   3.416   3.416   3.416   3.416   3.416   3.416   3.416   3.416   3.416   3.416   3.416   3.416   3.416   3.416   3.416   3.416
    58.75    3.416   3.416   3.416   3.416   3.416   3.416   3.416   3.416   3.416   3.416   3.416   3.416   3.416   3.416   3.416   3.416   3.416
    48.44    3.416   3.416   3.416   3.416   3.416   3.416   3.416   3.416   3.416   3.416   3.416   3.416   3.416   3.416   3.416   3.416   3.416
    38.12    3.416   3.416   3.416   3.416   3.416   3.416   3.416   3.416   3.416   3.416   3.416   3.416   3.416   3.416   3.416   3.416   3.416
    27.81    3.416   3.416   3.416   3.416   3.416   3.416   3.416   3.416   3.416   3.416   3.416   3.416   3.416   3.416   3.416   3.416   3.416
    17.50    3.416   3.416   3.416   3.416   3.416   3.416   3.416   3.416   3.416   3.416   3.416   3.416   3.416   3.416   3.416   3.416   3.416

   Height   Standard deviation at grid points for the v component:
   182.50    2.733   2.733   2.733   2.733   2.733   2.733   2.733   2.733   2.733   2.733   2.733   2.733   2.733   2.733   2.733   2.733   2.733
   172.19    2.733   2.733   2.733   2.733   2.733   2.733   2.733   2.733   2.733   2.733   2.733   2.733   2.733   2.733   2.733   2.733   2.733
   161.88    2.733   2.733   2.733   2.733   2.733   2.733   2.733   2.733   2.733   2.733   2.733   2.733   2.733   2.733   2.733   2.733   2.733
   151.56    2.733   2.733   2.733   2.733   2.733   2.733   2.733   2.733   2.733   2.733   2.733   2.733   2.733   2.733   2.733   2.733   2.733
   141.25    2.733   2.733   2.733   2.733   2.733   2.733   2.733   2.733   2.733   2.733   2.733   2.733   2.733   2.733   2.733   2.733   2.733
   130.94    2.733   2.733   2.733   2.733   2.733   2.733   2.733   2.733   2.733   2.733   2.733   2.733   2.733   2.733   2.733   2.733   2.733
   120.62    2.733   2.733   2.733   2.733   2.733   2.733   2.733   2.733   2.733   2.733   2.733   2.733   2.733   2.733   2.733   2.733   2.733
   110.31    2.733   2.733   2.733   2.733   2.733   2.733   2.733   2.733   2.733   2.733   2.733   2.733   2.733   2.733   2.733   2.733   2.733
   100.00    2.733   2.733   2.733   2.733   2.733   2.733   2.733   2.733   2.733   2.733   2.733   2.733   2.733   2.733   2.733   2.733   2.733
    89.69    2.733   2.733   2.733   2.733   2.733   2.733   2.733   2.733   2.733   2.733   2.733   2.733   2.733   2.733   2.733   2.733   2.733
    79.38    2.733   2.733   2.733   2.733   2.733   2.733   2.733   2.733   2.733   2.733   2.733   2.733   2.733   2.733   2.733   2.733   2.733
    69.06    2.733   2.733   2.733   2.733   2.733   2.733   2.733   2.733   2.733   2.733   2.733   2.733   2.733   2.733   2.733   2.733   2.733
    58.75    2.733   2.733   2.733   2.733   2.733   2.733   2.733   2.733   2.733   2.733   2.733   2.733   2.733   2.733   2.733   2.733   2.733
    48.44    2.733   2.733   2.733   2.733   2.733   2.733   2.733   2.733   2.733   2.733   2.733   2.733   2.733   2.733   2.733   2.733   2.733
    38.12    2.733   2.733   2.733   2.733   2.733   2.733   2.733   2.733   2.733   2.733   2.733   2.733   2.733   2.733   2.733   2.733   2.733
    27.81    2.733   2.733   2.733   2.733   2.733   2.733   2.733   2.733   2.733   2.733   2.733   2.733   2.733   2.733   2.733   2.733   2.733
    17.50    2.733   2.733   2.733   2.733   2.733   2.733   2.733   2.733   2.733   2.733   2.733   2.733   2.733   2.733   2.733   2.733   2.733

   Height   Standard deviation at grid points for the w component:
   182.50    1.708   1.708   1.708   1.708   1.708   1.708   1.708   1.708   1.708   1.708   1.708   1.708   1.708   1.708   1.708   1.708   1.708
   172.19    1.708   1.708   1.708   1.708   1.708   1.708   1.708   1.708   1.708   1.708   1.708   1.708   1.708   1.708   1.708   1.708   1.708
   161.88    1.708   1.708   1.708   1.708   1.708   1.708   1.708   1.708   1.708   1.708   1.708   1.708   1.708   1.708   1.708   1.708   1.708
   151.56    1.708   1.708   1.708   1.708   1.708   1.708   1.708   1.708   1.708   1.708   1.708   1.708   1.708   1.708   1.708   1.708   1.708
   141.25    1.708   1.708   1.708   1.708   1.708   1.708   1.708   1.708   1.708   1.708   1.708   1.708   1.708   1.708   1.708   1.708   1.708
   130.94    1.708   1.708   1.708   1.708   1.708   1.708   1.708   1.708   1.708   1.708   1.708   1.708   1.708   1.708   1.708   1.708   1.708
   120.62    1.708   1.708   1.708   1.708   1.708   1.708   1.708   1.708   1.708   1.708   1.708   1.708   1.708   1.708   1.708   1.708   1.708
   110.31    1.708   1.708   1.708   1.708   1.708   1.708   1.708   1.708   1.708   1.708   1.708   1.708   1.708   1.708   1.708   1.708   1.708
   100.00    1.708   1.708   1.708   1.708   1.708   1.708   1.708   1.708   1.708   1.708   1.708   1.708   1.708   1.708   1.708   1.708   1.708
    89.69    1.708   1.708   1.708   1.708   1.708   1.708   1.708   1.708   1.708   1.708   1.708   1.708   1.708   1.708   1.708   1.708   1.708
    79.38    1.708   1.708   1.708   1.708   1.708   1.708   1.708   1.708   1.708   1.708   1.708   1.708   1.708   1.708   1.708   1.708   1.708
    69.06    1.708   1.708   1.708   1.708   1.708   1.708   1.708   1.708   1.708   1.708   1.708   1.708   1.708   1.708   1.708   1.708   1.708
    58.75    1.708   1.708   1.708   1.708   1.708   1.708   1.708   1.708   1.708   1.708   1.708   1.708   1.708   1.708   1.708   1.708   1.708
    48.44    1.708   1.708   1.708   1.708   1.708   1.708   1.708   1.708   1.708   1.708   1.708   1.708   1.708   1.708   1.708   1.708   1.708
    38.12    1.708   1.708   1.708   1.708   1.708   1.708   1.708   1.708   1.708   1.708   1.708   1.708   1.708   1.708   1.708   1.708   1.708
    27.81    1.708   1.708   1.708   1.708   1.708   1.708   1.708   1.708   1.708   1.708   1.708   1.708   1.708   1.708   1.708   1.708   1.708
    17.50    1.708   1.708   1.708   1.708   1.708   1.708   1.708   1.708   1.708   1.708   1.708   1.708   1.708   1.708   1.708   1.708   1.708

   Mean standard deviation across all grid points:
      u component:    3.416 m/s
      v component:    2.733 m/s
      w component:    1.708 m/s


U-component (X) statistics from the hub grid point:

   Mean =  21.0000 m/s
   TI   =  16.2667 %


Normalizing Parameters for Binary Data (approximate statistics):

   UBar  =  21.0000 m/s
   TI(u) =  16.2667 %
   TI(v) =  13.0133 %
   TI(w) =   8.1333 %

   Height Offset =   0.0000 m
   Grid Base     =  17.5000 m

Nyquist frequency of turbulent wind field =        10.000 Hz


Processing complete.  6.1562 CPU seconds used.
