
This summary file was generated by TurbSim (v1.06.00, 21-Sep-2012) on 13-Dec-2025 at 22:20:04.


Runtime Options:

   1234568  Random seed #1
    RANLUX  Type of random number generator
         F  Output binary HH turbulence parameters?
         F  Output formatted turbulence parameters?
         F  Output AeroDyn HH files?
         F  Output AeroDyn FF files?
         T  Output BLADED FF files?
         T  Output tower data?
         F  Output formatted FF files?
         F  Output coherent turbulence time step file?
         T  Clockwise rotation when looking downwind?
 0 -  NONE  IEC turbulence models scaled to exact specified standard deviation


Turbine/Model Specifications:

        17  Vertical grid-point matrix dimension
        17  Horizontal grid-point matrix dimension
     0.050  Time step [seconds]
    60.000  Analysis time [seconds]
   660.000  Usable output time [seconds]
   100.000  Hub height [m]
   165.000  Grid height [m]
   165.000  Grid width [m]
     0.000  Vertical flow angle [degrees]
     0.000  Horizontal flow angle [degrees]


Meteorological Boundary Conditions:

    IECKAI  IEC Kaimal spectral model
         1  IEC standard: IEC 61400-1 Ed. 3: 2005
         A  IEC turbulence characteristic
      2ETM  IEC Extreme Turbulence Model
     2.000  IEC Extreme Turbulence Model (ETM) "c" parameter [m/s]
       IEC  Wind profile type
   100.000  Reference height [m]
    19.000  Reference wind speed [m/s]
       N/A  Jet height [m]
     0.200  Power law exponent
     0.030  Surface roughness length [m]


You have requested that the following file(s) be generated:

   19ms_2A.wnd (AeroDyn/BLADED full-field wnd file)
   19ms_2A.twr (Binary tower twr file)


Turbulence Simulation Scaling Parameter Summary:

   Turbulence model used                            =  IEC Kaimal
   Turbulence characteristic                        =  2A
   IEC turbulence type                              =  Extreme Turbulence Model
   Reference wind speed average over 10 minutes     =   42.500 m/s
   Annual wind speed average at hub height          =    8.500 m/s
   IEC standard                                     =  IEC 61400-1 Ed. 3: 2005
   Mean wind speed at hub height                    =   19.000 m/s
   Expected value of turbulence intensity at 15 m/s =   16.000%
   Characteristic value of standard deviation       =    4.119 m/s
   Turbulence scale                                 =   42.000 m
   u-component integral scale                       =  340.200 m
   Coherency scale                                  =  340.200 m
   Characteristic value of hub turbulence intensity =   21.677%
   Gradient Richardson number                       =    0.000

   Wind profile type                                =  Power law on rotor disk, logarithmic elsewhere
   Power law exponent                               =    0.200
   Mean shear across rotor disk                     =    0.049 (m/s)/m
   Assumed rotor diameter                           =  165.000 m
   Surface roughness length                         =    0.030 m

   Number of time steps in the FFT                  =    13376
   Number of time steps output                      =    13374


Mean Flow Angles:

   Vertical   =   0.0 degrees
   Horizontal =   0.0 degrees

Mean Wind Speed Profile:

   Height    Wind Speed   Horizontal Angle  U-comp (X)   V-comp (Y)   W-comp (Z)
     (m)        (m/s)         (degrees)       (m/s)        (m/s)        (m/s)   
   ------    ----------   ----------------  ----------   ----------   ----------
    182.5       21.43            0.00         21.43         0.00         0.00
    172.2       21.18            0.00         21.18         0.00         0.00
    161.9       20.92            0.00         20.92         0.00         0.00
    151.6       20.65            0.00         20.65         0.00         0.00
    141.2       20.36            0.00         20.36         0.00         0.00
    130.9       20.05            0.00         20.05         0.00         0.00
    120.6       19.73            0.00         19.73         0.00         0.00
    110.3       19.38            0.00         19.38         0.00         0.00
    100.0       19.00            0.00         19.00         0.00         0.00
     89.7       18.59            0.00         18.59         0.00         0.00
     79.4       18.14            0.00         18.14         0.00         0.00
     69.1       17.64            0.00         17.64         0.00         0.00
     58.8       17.08            0.00         17.08         0.00         0.00
     48.4       16.44            0.00         16.44         0.00         0.00
     38.1       15.67            0.00         15.67         0.00         0.00
     27.8       14.71            0.00         14.71         0.00         0.00
     17.5       13.41            0.00         13.41         0.00         0.00
      7.2       12.83            0.00         12.83         0.00         0.00


Harvested Random Seeds after Generation of the Random Numbers:

     54064120 K1
            0 K2


Hub-Height Simulated Turbulence Statistical Summary:

   Type of Wind        Min (m/s)   Mean (m/s)    Max (m/s)  Sigma (m/s)       TI (%)
   ----------------    ---------   ----------    ---------  -----------       ------
   Longitudinal (u)         9.63        19.00        30.12        3.335       17.553
   Lateral (v)            -11.76         0.00        11.99        3.233       17.015
   Vertical (w)            -8.00         0.00         7.01        2.002       10.538
   U component              9.63        19.00        30.12        3.335       17.553
   V component            -11.76         0.00        11.99        3.233       17.015
   W component             -8.00         0.00         7.01        2.002       10.538
   Horizontal (U&V)         9.63        19.28        30.38        3.318       17.212
   Total                    9.63        19.38        30.56        3.308       17.066

                       Min Reynolds     Mean Reynolds    Max Reynolds    Correlation
   Product             Stress (m/s)^2   Stress (m/s)^2   Stress (m/s)^2  Coefficient
   ----------------    --------------   --------------   --------------  -----------
   u'w'                    -43.453             0.080            43.174         0.012
   u'v'                    -60.235             0.405            84.154         0.038
   v'w'                    -45.919            -0.124            44.137        -0.019


   Friction Velocity (Ustar)  =      0.282 m/s
   Maximum Instantaneous TKE  =     88.801 (m/s)^2
   Maximum Instantaneous CTKE =     42.830 (m/s)^2


Grid Point Variance Summary:

   Y-coord  -82.50  -72.19  -61.88  -51.56  -41.25  -30.94  -20.62  -10.31    0.00   10.31   20.62   30.94   41.25   51.56   61.88   72.19   82.50

   Height   Standard deviation at grid points for the u component:
   182.50    4.359   4.311   4.279   4.218   4.281   4.144   4.117   3.976   3.983   3.872   3.927   3.732   3.748   3.930   3.689   3.774   3.766
   172.19    4.026   4.192   3.969   3.959   3.831   4.131   4.026   3.859   3.700   3.894   3.878   3.369   3.616   3.589   3.845   3.834   3.979
   161.88    4.164   4.028   3.908   3.747   3.643   3.656   3.915   3.883   3.691   3.751   3.966   3.487   3.447   3.508   3.830   3.848   3.947
   151.56    3.945   4.104   3.839   3.752   3.638   3.631   3.609   3.649   3.784   3.696   3.556   3.591   3.598   3.798   3.693   3.837   3.963
   141.25    3.797   3.796   3.584   3.668   3.647   3.760   3.884   3.784   3.720   3.633   3.415   3.809   3.663   3.621   3.900   4.061   3.936
   130.94    3.522   3.437   3.564   3.795   3.507   3.746   3.887   3.809   3.701   3.580   3.672   3.724   3.524   3.766   3.763   3.904   3.899
   120.62    3.620   3.624   3.589   3.616   3.630   4.084   4.021   3.796   3.735   3.823   3.706   3.590   3.695   3.644   3.836   3.816   3.934
   110.31    3.656   3.661   3.734   3.743   3.807   4.050   4.042   3.773   3.548   3.603   3.688   3.589   3.768   3.578   3.703   3.833   4.091
   100.00    3.631   3.582   3.753   3.799   3.938   4.044   3.848   3.672   3.335   3.601   3.555   3.604   3.654   3.543   3.550   3.693   3.715
    89.69    3.557   3.751   3.820   3.873   3.861   3.856   3.690   3.458   3.325   3.536   3.555   3.615   3.435   3.584   3.627   3.662   3.750
    79.38    3.496   3.756   3.828   3.772   3.683   3.689   3.507   3.531   3.461   3.214   3.346   3.458   3.297   3.308   3.250   3.543   3.778
    69.06    3.722   3.649   3.792   3.597   3.700   3.532   3.487   3.329   3.467   3.356   3.359   3.249   3.429   3.610   3.452   3.457   3.636
    58.75    3.760   3.839   3.858   3.701   3.785   3.713   3.370   3.350   3.369   3.427   3.298   3.451   3.470   3.663   3.660   3.625   3.794
    48.44    3.688   3.833   3.709   3.739   3.786   3.783   3.422   3.514   3.513   3.590   3.646   3.556   3.753   3.827   3.787   3.739   3.814
    38.12    3.779   3.586   3.782   3.670   3.628   3.735   3.554   3.647   3.698   3.770   3.604   3.695   3.728   3.603   3.659   3.903   3.966
    27.81    3.943   3.773   3.699   3.868   3.623   3.770   3.926   3.840   3.828   3.625   3.761   3.644   3.767   3.724   3.491   3.720   3.888
    17.50    3.992   3.884   3.702   3.609   3.867   4.038   3.864   3.953   4.072   3.938   3.626   3.782   3.834   3.887   3.649   3.911   3.906

   Height   Standard deviation at grid points for the v component:
   182.50    3.233   3.233   3.233   3.233   3.233   3.233   3.233   3.233   3.233   3.233   3.233   3.233   3.233   3.233   3.233   3.233   3.233
   172.19    3.233   3.233   3.233   3.233   3.233   3.233   3.233   3.233   3.233   3.233   3.233   3.233   3.233   3.233   3.233   3.233   3.233
   161.88    3.233   3.233   3.233   3.233   3.233   3.233   3.233   3.233   3.233   3.233   3.233   3.233   3.233   3.233   3.233   3.233   3.233
   151.56    3.233   3.233   3.233   3.233   3.233   3.233   3.233   3.233   3.233   3.233   3.233   3.233   3.233   3.233   3.233   3.233   3.233
   141.25    3.233   3.233   3.233   3.233   3.233   3.233   3.233   3.233   3.233   3.233   3.233   3.233   3.233   3.233   3.233   3.233   3.233
   130.94    3.233   3.233   3.233   3.233   3.233   3.233   3.233   3.233   3.233   3.233   3.233   3.233   3.233   3.233   3.233   3.233   3.233
   120.62    3.233   3.233   3.233   3.233   3.233   3.233   3.233   3.233   3.233   3.233   3.233   3.233   3.233   3.233   3.233   3.233   3.233
   110.31    3.233   3.233   3.233   3.233   3.233   3.233   3.233   3.233   3.233   3.233   3.233   3.233   3.233   3.233   3.233   3.233   3.233
   100.00    3.233   3.233   3.233   3.233   3.233   3.233   3.233   3.233   3.233   3.233   3.233   3.233   3.233   3.233   3.233   3.233   3.233
    89.69    3.233   3.233   3.233   3.233   3.233   3.233   3.233   3.233   3.233   3.233   3.233   3.233   3.233   3.233   3.233   3.233   3.233
    79.38    3.233   3.233   3.233   3.233   3.233   3.233   3.233   3.233   3.233   3.233   3.233   3.233   3.233   3.233   3.233   3.233   3.233
    69.06    3.233   3.233   3.233   3.233   3.233   3.233   3.233   3.233   3.233   3.233   3.233   3.233   3.233   3.233   3.233   3.233   3.233
    58.75    3.233   3.233   3.233   3.233   3.233   3.233   3.233   3.233   3.233   3.233   3.233   3.233   3.233   3.233   3.233   3.233   3.233
    48.44    3.233   3.233   3.233   3.233   3.233   3.233   3.233   3.233   3.233   3.233   3.233   3.233   3.233   3.233   3.233   3.233   3.233
    38.12    3.233   3.233   3.233   3.233   3.233   3.233   3.233   3.233   3.233   3.233   3.233   3.233   3.233   3.233   3.233   3.233   3.233
    27.81    3.233   3.233   3.233   3.233   3.233   3.233   3.233   3.233   3.233   3.233   3.233   3.233   3.233   3.233   3.233   3.233   3.233
    17.50    3.233   3.233   3.233   3.233   3.233   3.233   3.233   3.233   3.233   3.233   3.233   3.233   3.233   3.233   3.233   3.233   3.233

   Height   Standard deviation at grid points for the w component:
   182.50    2.002   2.002   2.002   2.002   2.002   2.002   2.002   2.002   2.002   2.002   2.002   2.002   2.002   2.002   2.002   2.002   2.002
   172.19    2.002   2.002   2.002   2.002   2.002   2.002   2.002   2.002   2.002   2.002   2.002   2.002   2.002   2.002   2.002   2.002   2.002
   161.88    2.002   2.002   2.002   2.002   2.002   2.002   2.002   2.002   2.002   2.002   2.002   2.002   2.002   2.002   2.002   2.002   2.002
   151.56    2.002   2.002   2.002   2.002   2.002   2.002   2.002   2.002   2.002   2.002   2.002   2.002   2.002   2.002   2.002   2.002   2.002
   141.25    2.002   2.002   2.002   2.002   2.002   2.002   2.002   2.002   2.002   2.002   2.002   2.002   2.002   2.002   2.002   2.002   2.002
   130.94    2.002   2.002   2.002   2.002   2.002   2.002   2.002   2.002   2.002   2.002   2.002   2.002   2.002   2.002   2.002   2.002   2.002
   120.62    2.002   2.002   2.002   2.002   2.002   2.002   2.002   2.002   2.002   2.002   2.002   2.002   2.002   2.002   2.002   2.002   2.002
   110.31    2.002   2.002   2.002   2.002   2.002   2.002   2.002   2.002   2.002   2.002   2.002   2.002   2.002   2.002   2.002   2.002   2.002
   100.00    2.002   2.002   2.002   2.002   2.002   2.002   2.002   2.002   2.002   2.002   2.002   2.002   2.002   2.002   2.002   2.002   2.002
    89.69    2.002   2.002   2.002   2.002   2.002   2.002   2.002   2.002   2.002   2.002   2.002   2.002   2.002   2.002   2.002   2.002   2.002
    79.38    2.002   2.002   2.002   2.002   2.002   2.002   2.002   2.002   2.002   2.002   2.002   2.002   2.002   2.002   2.002   2.002   2.002
    69.06    2.002   2.002   2.002   2.002   2.002   2.002   2.002   2.002   2.002   2.002   2.002   2.002   2.002   2.002   2.002   2.002   2.002
    58.75    2.002   2.002   2.002   2.002   2.002   2.002   2.002   2.002   2.002   2.002   2.002   2.002   2.002   2.002   2.002   2.002   2.002
    48.44    2.002   2.002   2.002   2.002   2.002   2.002   2.002   2.002   2.002   2.002   2.002   2.002   2.002   2.002   2.002   2.002   2.002
    38.12    2.002   2.002   2.002   2.002   2.002   2.002   2.002   2.002   2.002   2.002   2.002   2.002   2.002   2.002   2.002   2.002   2.002
    27.81    2.002   2.002   2.002   2.002   2.002   2.002   2.002   2.002   2.002   2.002   2.002   2.002   2.002   2.002   2.002   2.002   2.002
    17.50    2.002   2.002   2.002   2.002   2.002   2.002   2.002   2.002   2.002   2.002   2.002   2.002   2.002   2.002   2.002   2.002   2.002

   Mean standard deviation across all grid points:
      u component:    3.725 m/s
      v component:    3.233 m/s
      w component:    2.002 m/s


U-component (X) statistics from the hub grid point:

   Mean =  19.0000 m/s
   TI   =  17.5528 %


Normalizing Parameters for Binary Data (approximate statistics):

   UBar  =  19.0000 m/s
   TI(u) =  17.5528 %
   TI(v) =  17.0148 %
   TI(w) =  10.5382 %

   Height Offset =   0.0000 m
   Grid Base     =  17.5000 m

Nyquist frequency of turbulent wind field =        10.000 Hz


Processing complete.  6.0781 CPU seconds used.
