
This summary file was generated by TurbSim (v1.06.00, 21-Sep-2012) on 19-Jan-2026 at 00:40:17.


Runtime Options:

       600  Random seed #1
    RANLUX  Type of random number generator
         F  Output binary HH turbulence parameters?
         F  Output formatted turbulence parameters?
         F  Output AeroDyn HH files?
         F  Output AeroDyn FF files?
         T  Output BLADED FF files?
         T  Output tower data?
         F  Output formatted FF files?
         F  Output coherent turbulence time step file?
         T  Clockwise rotation when looking downwind?
 0 -  NONE  IEC turbulence models scaled to exact specified standard deviation


Turbine/Model Specifications:

        17  Vertical grid-point matrix dimension
        17  Horizontal grid-point matrix dimension
     0.050  Time step [seconds]
    60.000  Analysis time [seconds]
   660.000  Usable output time [seconds]
   100.000  Hub height [m]
   165.000  Grid height [m]
   165.000  Grid width [m]
     0.000  Vertical flow angle [degrees]
     0.000  Horizontal flow angle [degrees]


Meteorological Boundary Conditions:

    IECKAI  IEC Kaimal spectral model
         1  IEC standard: IEC 61400-1 Ed. 3: 2005
         A  IEC turbulence characteristic
    2EWM50  IEC Extreme 50-Year Wind Speed Model
       N/A  IEC Extreme Turbulence Model (ETM) "c" parameter [m/s]
       IEC  Wind profile type
   100.000  Reference height [m]
       N/A  Reference wind speed [m/s]
       N/A  Jet height [m]
       N/A  Power law exponent
     0.030  Surface roughness length [m]


You have requested that the following file(s) be generated:

   42.5ms_2A.wnd (AeroDyn/BLADED full-field wnd file)
   42.5ms_2A.twr (Binary tower twr file)


Turbulence Simulation Scaling Parameter Summary:

   Turbulence model used                            =  IEC Kaimal
   Turbulence characteristic                        =  2A
   IEC turbulence type                              =  Extreme 50-Year Wind Speed Model
   Reference wind speed average over 10 minutes     =   42.500 m/s
   Annual wind speed average at hub height          =    8.500 m/s
   IEC standard                                     =  IEC 61400-1 Ed. 3: 2005
   Mean wind speed at hub height                    =   42.500 m/s
   Expected value of turbulence intensity at 15 m/s =   16.000%
   Characteristic value of standard deviation       =    4.675 m/s
   Turbulence scale                                 =   42.000 m
   u-component integral scale                       =  340.200 m
   Coherency scale                                  =  340.200 m
   Characteristic value of hub turbulence intensity =   11.000%
   Gradient Richardson number                       =    0.000

   Wind profile type                                =  Power law on rotor disk, logarithmic elsewhere
   Power law exponent                               =    0.110
   Mean shear across rotor disk                     =    0.063 (m/s)/m
   Assumed rotor diameter                           =  165.000 m
   Surface roughness length                         =    0.030 m

   Number of time steps in the FFT                  =    13300
   Number of time steps output                      =    13278


Mean Flow Angles:

   Vertical   =   0.0 degrees
   Horizontal =   0.0 degrees

Mean Wind Speed Profile:

   Height    Wind Speed   Horizontal Angle  U-comp (X)   V-comp (Y)   W-comp (Z)
     (m)        (m/s)         (degrees)       (m/s)        (m/s)        (m/s)   
   ------    ----------   ----------------  ----------   ----------   ----------
    182.5       45.41            0.00         45.41         0.00         0.00
    172.2       45.12            0.00         45.12         0.00         0.00
    161.9       44.81            0.00         44.81         0.00         0.00
    151.6       44.49            0.00         44.49         0.00         0.00
    141.2       44.15            0.00         44.15         0.00         0.00
    130.9       43.78            0.00         43.78         0.00         0.00
    120.6       43.39            0.00         43.39         0.00         0.00
    110.3       42.96            0.00         42.96         0.00         0.00
    100.0       42.50            0.00         42.50         0.00         0.00
     89.7       41.99            0.00         41.99         0.00         0.00
     79.4       41.43            0.00         41.43         0.00         0.00
     69.1       40.80            0.00         40.80         0.00         0.00
     58.8       40.08            0.00         40.08         0.00         0.00
     48.4       39.24            0.00         39.24         0.00         0.00
     38.1       38.22            0.00         38.22         0.00         0.00
     27.8       36.92            0.00         36.92         0.00         0.00
     17.5       35.09            0.00         35.09         0.00         0.00
      7.2       31.81            0.00         31.81         0.00         0.00


Harvested Random Seeds after Generation of the Random Numbers:

     53756838 K1
            0 K2


Hub-Height Simulated Turbulence Statistical Summary:

   Type of Wind        Min (m/s)   Mean (m/s)    Max (m/s)  Sigma (m/s)       TI (%)
   ----------------    ---------   ----------    ---------  -----------       ------
   Longitudinal (u)        27.47        42.50        58.80        4.442       10.451
   Lateral (v)            -12.57         0.00        16.09        3.661        8.614
   Vertical (w)            -8.82         0.00         8.70        2.233        5.255
   U component             27.47        42.50        58.80        4.442       10.451
   V component            -12.57         0.00        16.09        3.661        8.614
   W component             -8.82         0.00         8.70        2.233        5.255
   Horizontal (U&V)        27.81        42.66        59.08        4.433       10.391
   Total                   27.86        42.72        59.12        4.427       10.364

                       Min Reynolds     Mean Reynolds    Max Reynolds    Correlation
   Product             Stress (m/s)^2   Stress (m/s)^2   Stress (m/s)^2  Coefficient
   ----------------    --------------   --------------   --------------  -----------
   u'w'                    -95.569            -0.410            66.438        -0.041
   u'v'                   -140.104             0.186           118.388         0.011
   v'w'                    -74.551             0.173            58.819         0.021


   Friction Velocity (Ustar)  =      0.640 m/s
   Maximum Instantaneous TKE  =    155.585 (m/s)^2
   Maximum Instantaneous CTKE =     73.968 (m/s)^2


Grid Point Variance Summary:

   Y-coord  -82.50  -72.19  -61.88  -51.56  -41.25  -30.94  -20.62  -10.31    0.00   10.31   20.62   30.94   41.25   51.56   61.88   72.19   82.50

   Height   Standard deviation at grid points for the u component:
   182.50    4.745   4.812   4.716   4.654   4.711   4.807   4.549   4.576   4.436   4.483   4.377   4.523   4.596   4.731   4.512   4.507   4.529
   172.19    4.841   4.944   4.664   4.773   4.732   4.795   4.641   4.768   4.594   4.356   4.474   4.592   4.569   4.770   4.767   4.612   4.489
   161.88    4.857   4.948   4.889   4.668   4.694   4.703   4.603   4.676   4.590   4.507   4.661   4.505   4.602   4.680   4.578   4.437   4.179
   151.56    4.947   5.059   4.867   4.887   4.757   4.652   4.613   4.657   4.381   4.482   4.703   4.634   4.509   4.664   4.521   4.346   4.437
   141.25    5.017   4.980   4.981   5.002   5.031   4.685   4.639   4.472   4.441   4.581   4.443   4.546   4.613   4.499   4.650   4.456   4.507
   130.94    5.043   4.970   4.785   4.877   4.925   4.777   4.701   4.467   4.456   4.538   4.344   4.603   4.372   4.628   4.742   4.642   4.657
   120.62    4.858   4.813   4.733   4.839   4.841   4.593   4.578   4.677   4.704   4.687   4.590   4.494   4.421   4.615   4.676   4.716   4.653
   110.31    4.919   4.678   4.568   4.615   4.600   4.468   4.713   4.790   4.496   4.572   4.456   4.478   4.439   4.599   4.825   4.872   4.790
   100.00    4.788   4.565   4.556   4.598   4.416   4.439   4.641   4.571   4.442   4.629   4.471   4.424   4.518   4.611   4.694   4.787   4.736
    89.69    4.778   4.871   4.745   4.605   4.612   4.409   4.560   4.519   4.521   4.491   4.752   4.622   4.637   4.738   4.561   4.738   4.646
    79.38    4.727   4.777   4.786   4.769   4.690   4.569   4.649   4.775   4.750   4.629   4.658   4.540   4.513   4.710   4.813   4.716   4.706
    69.06    4.927   4.715   4.779   4.682   4.703   4.750   4.960   4.886   4.714   4.581   4.506   4.595   4.575   4.403   4.594   4.710   4.619
    58.75    4.953   4.743   4.707   4.759   4.747   4.760   4.742   4.827   4.836   4.528   4.507   4.669   4.531   4.362   4.530   4.621   4.604
    48.44    4.753   4.723   4.682   4.553   4.620   4.595   4.659   4.750   4.739   4.625   4.533   4.520   4.532   4.316   4.469   4.587   4.446
    38.12    4.695   4.716   4.783   4.667   4.549   4.646   4.767   4.676   4.637   4.516   4.414   4.608   4.598   4.360   4.339   4.478   4.325
    27.81    4.756   4.795   4.774   4.826   4.791   4.862   4.650   4.635   4.628   4.342   4.619   4.433   4.591   4.492   4.547   4.454   4.373
    17.50    4.581   4.632   4.788   4.704   4.707   4.619   4.371   4.454   4.459   4.389   4.645   4.629   4.442   4.527   4.562   4.492   4.479

   Height   Standard deviation at grid points for the v component:
   182.50    3.661   3.661   3.661   3.661   3.661   3.661   3.661   3.661   3.661   3.661   3.661   3.661   3.661   3.661   3.661   3.661   3.661
   172.19    3.661   3.661   3.661   3.661   3.661   3.661   3.661   3.661   3.661   3.661   3.661   3.661   3.661   3.661   3.661   3.661   3.661
   161.88    3.661   3.661   3.661   3.661   3.661   3.661   3.661   3.661   3.661   3.661   3.661   3.661   3.661   3.661   3.661   3.661   3.661
   151.56    3.661   3.661   3.661   3.661   3.661   3.661   3.661   3.661   3.661   3.661   3.661   3.661   3.661   3.661   3.661   3.661   3.661
   141.25    3.661   3.661   3.661   3.661   3.661   3.661   3.661   3.661   3.661   3.661   3.661   3.661   3.661   3.661   3.661   3.661   3.661
   130.94    3.661   3.661   3.661   3.661   3.661   3.661   3.661   3.661   3.661   3.661   3.661   3.661   3.661   3.661   3.661   3.661   3.661
   120.62    3.661   3.661   3.661   3.661   3.661   3.661   3.661   3.661   3.661   3.661   3.661   3.661   3.661   3.661   3.661   3.661   3.661
   110.31    3.661   3.661   3.661   3.661   3.661   3.661   3.661   3.661   3.661   3.661   3.661   3.661   3.661   3.661   3.661   3.661   3.661
   100.00    3.661   3.661   3.661   3.661   3.661   3.661   3.661   3.661   3.661   3.661   3.661   3.661   3.661   3.661   3.661   3.661   3.661
    89.69    3.661   3.661   3.661   3.661   3.661   3.661   3.661   3.661   3.661   3.661   3.661   3.661   3.661   3.661   3.661   3.661   3.661
    79.38    3.661   3.661   3.661   3.661   3.661   3.661   3.661   3.661   3.661   3.661   3.661   3.661   3.661   3.661   3.661   3.661   3.661
    69.06    3.661   3.661   3.661   3.661   3.661   3.661   3.661   3.661   3.661   3.661   3.661   3.661   3.661   3.661   3.661   3.661   3.661
    58.75    3.661   3.661   3.661   3.661   3.661   3.661   3.661   3.661   3.661   3.661   3.661   3.661   3.661   3.661   3.661   3.661   3.661
    48.44    3.661   3.661   3.661   3.661   3.661   3.661   3.661   3.661   3.661   3.661   3.661   3.661   3.661   3.661   3.661   3.661   3.661
    38.12    3.661   3.661   3.661   3.661   3.661   3.661   3.661   3.661   3.661   3.661   3.661   3.661   3.661   3.661   3.661   3.661   3.661
    27.81    3.661   3.661   3.661   3.661   3.661   3.661   3.661   3.661   3.661   3.661   3.661   3.661   3.661   3.661   3.661   3.661   3.661
    17.50    3.661   3.661   3.661   3.661   3.661   3.661   3.661   3.661   3.661   3.661   3.661   3.661   3.661   3.661   3.661   3.661   3.661

   Height   Standard deviation at grid points for the w component:
   182.50    2.233   2.233   2.233   2.233   2.233   2.233   2.233   2.233   2.233   2.233   2.233   2.233   2.233   2.233   2.233   2.233   2.233
   172.19    2.233   2.233   2.233   2.233   2.233   2.233   2.233   2.233   2.233   2.233   2.233   2.233   2.233   2.233   2.233   2.233   2.233
   161.88    2.233   2.233   2.233   2.233   2.233   2.233   2.233   2.233   2.233   2.233   2.233   2.233   2.233   2.233   2.233   2.233   2.233
   151.56    2.233   2.233   2.233   2.233   2.233   2.233   2.233   2.233   2.233   2.233   2.233   2.233   2.233   2.233   2.233   2.233   2.233
   141.25    2.233   2.233   2.233   2.233   2.233   2.233   2.233   2.233   2.233   2.233   2.233   2.233   2.233   2.233   2.233   2.233   2.233
   130.94    2.233   2.233   2.233   2.233   2.233   2.233   2.233   2.233   2.233   2.233   2.233   2.233   2.233   2.233   2.233   2.233   2.233
   120.62    2.233   2.233   2.233   2.233   2.233   2.233   2.233   2.233   2.233   2.233   2.233   2.233   2.233   2.233   2.233   2.233   2.233
   110.31    2.233   2.233   2.233   2.233   2.233   2.233   2.233   2.233   2.233   2.233   2.233   2.233   2.233   2.233   2.233   2.233   2.233
   100.00    2.233   2.233   2.233   2.233   2.233   2.233   2.233   2.233   2.233   2.233   2.233   2.233   2.233   2.233   2.233   2.233   2.233
    89.69    2.233   2.233   2.233   2.233   2.233   2.233   2.233   2.233   2.233   2.233   2.233   2.233   2.233   2.233   2.233   2.233   2.233
    79.38    2.233   2.233   2.233   2.233   2.233   2.233   2.233   2.233   2.233   2.233   2.233   2.233   2.233   2.233   2.233   2.233   2.233
    69.06    2.233   2.233   2.233   2.233   2.233   2.233   2.233   2.233   2.233   2.233   2.233   2.233   2.233   2.233   2.233   2.233   2.233
    58.75    2.233   2.233   2.233   2.233   2.233   2.233   2.233   2.233   2.233   2.233   2.233   2.233   2.233   2.233   2.233   2.233   2.233
    48.44    2.233   2.233   2.233   2.233   2.233   2.233   2.233   2.233   2.233   2.233   2.233   2.233   2.233   2.233   2.233   2.233   2.233
    38.12    2.233   2.233   2.233   2.233   2.233   2.233   2.233   2.233   2.233   2.233   2.233   2.233   2.233   2.233   2.233   2.233   2.233
    27.81    2.233   2.233   2.233   2.233   2.233   2.233   2.233   2.233   2.233   2.233   2.233   2.233   2.233   2.233   2.233   2.233   2.233
    17.50    2.233   2.233   2.233   2.233   2.233   2.233   2.233   2.233   2.233   2.233   2.233   2.233   2.233   2.233   2.233   2.233   2.233

   Mean standard deviation across all grid points:
      u component:    4.638 m/s
      v component:    3.661 m/s
      w component:    2.233 m/s


U-component (X) statistics from the hub grid point:

   Mean =  42.5000 m/s
   TI   =  10.4509 %


Normalizing Parameters for Binary Data (approximate statistics):

   UBar  =  42.5000 m/s
   TI(u) =  10.4509 %
   TI(v) =   8.6143 %
   TI(w) =   5.2545 %

   Height Offset =   0.0000 m
   Grid Base     =  17.5000 m

Nyquist frequency of turbulent wind field =        10.000 Hz


Processing complete.  6.7969 CPU seconds used.
