
This summary file was generated by TurbSim (v1.06.00, 21-Sep-2012) on 21-Dec-2025 at 12:58:32.


Runtime Options:

   1000000  Random seed #1
    RANLUX  Type of random number generator
         F  Output binary HH turbulence parameters?
         F  Output formatted turbulence parameters?
         F  Output AeroDyn HH files?
         F  Output AeroDyn FF files?
         T  Output BLADED FF files?
         T  Output tower data?
         F  Output formatted FF files?
         F  Output coherent turbulence time step file?
         T  Clockwise rotation when looking downwind?
 0 -  NONE  IEC turbulence models scaled to exact specified standard deviation


Turbine/Model Specifications:

        17  Vertical grid-point matrix dimension
        17  Horizontal grid-point matrix dimension
     0.050  Time step [seconds]
    60.000  Analysis time [seconds]
   660.000  Usable output time [seconds]
   100.000  Hub height [m]
   165.000  Grid height [m]
   165.000  Grid width [m]
     0.000  Vertical flow angle [degrees]
     0.000  Horizontal flow angle [degrees]


Meteorological Boundary Conditions:

    IECKAI  IEC Kaimal spectral model
         1  IEC standard: IEC 61400-1 Ed. 3: 2005
         A  IEC turbulence characteristic
     2EWM1  IEC Extreme 1-Year Wind Speed Model
       N/A  IEC Extreme Turbulence Model (ETM) "c" parameter [m/s]
       IEC  Wind profile type
   100.000  Reference height [m]
       N/A  Reference wind speed [m/s]
       N/A  Jet height [m]
       N/A  Power law exponent
     0.030  Surface roughness length [m]


You have requested that the following file(s) be generated:

   34ms_2A.wnd (AeroDyn/BLADED full-field wnd file)
   34ms_2A.twr (Binary tower twr file)


Turbulence Simulation Scaling Parameter Summary:

   Turbulence model used                            =  IEC Kaimal
   Turbulence characteristic                        =  2A
   IEC turbulence type                              =  Extreme 1-Year Wind Speed Model
   Reference wind speed average over 10 minutes     =   42.500 m/s
   Annual wind speed average at hub height          =    8.500 m/s
   IEC standard                                     =  IEC 61400-1 Ed. 3: 2005
   Mean wind speed at hub height                    =   34.000 m/s
   Expected value of turbulence intensity at 15 m/s =   16.000%
   Characteristic value of standard deviation       =    3.740 m/s
   Turbulence scale                                 =   42.000 m
   u-component integral scale                       =  340.200 m
   Coherency scale                                  =  340.200 m
   Characteristic value of hub turbulence intensity =   11.000%
   Gradient Richardson number                       =    0.000

   Wind profile type                                =  Power law on rotor disk, logarithmic elsewhere
   Power law exponent                               =    0.110
   Mean shear across rotor disk                     =    0.050 (m/s)/m
   Assumed rotor diameter                           =  165.000 m
   Surface roughness length                         =    0.030 m

   Number of time steps in the FFT                  =    13300
   Number of time steps output                      =    13298


Mean Flow Angles:

   Vertical   =   0.0 degrees
   Horizontal =   0.0 degrees

Mean Wind Speed Profile:

   Height    Wind Speed   Horizontal Angle  U-comp (X)   V-comp (Y)   W-comp (Z)
     (m)        (m/s)         (degrees)       (m/s)        (m/s)        (m/s)   
   ------    ----------   ----------------  ----------   ----------   ----------
    182.5       36.33            0.00         36.33         0.00         0.00
    172.2       36.09            0.00         36.09         0.00         0.00
    161.9       35.85            0.00         35.85         0.00         0.00
    151.6       35.59            0.00         35.59         0.00         0.00
    141.2       35.32            0.00         35.32         0.00         0.00
    130.9       35.02            0.00         35.02         0.00         0.00
    120.6       34.71            0.00         34.71         0.00         0.00
    110.3       34.37            0.00         34.37         0.00         0.00
    100.0       34.00            0.00         34.00         0.00         0.00
     89.7       33.60            0.00         33.60         0.00         0.00
     79.4       33.15            0.00         33.15         0.00         0.00
     69.1       32.64            0.00         32.64         0.00         0.00
     58.8       32.07            0.00         32.07         0.00         0.00
     48.4       31.39            0.00         31.39         0.00         0.00
     38.1       30.58            0.00         30.58         0.00         0.00
     27.8       29.54            0.00         29.54         0.00         0.00
     17.5       28.07            0.00         28.07         0.00         0.00
      7.2       25.45            0.00         25.45         0.00         0.00


Harvested Random Seeds after Generation of the Random Numbers:

     53756838 K1
            0 K2


Hub-Height Simulated Turbulence Statistical Summary:

   Type of Wind        Min (m/s)   Mean (m/s)    Max (m/s)  Sigma (m/s)       TI (%)
   ----------------    ---------   ----------    ---------  -----------       ------
   Longitudinal (u)        19.23        34.00        45.30        3.684       10.836
   Lateral (v)            -10.02         0.00        10.46        2.933        8.626
   Vertical (w)            -6.31         0.00         5.77        1.797        5.286
   U component             19.23        34.00        45.30        3.684       10.836
   V component            -10.02         0.00        10.46        2.933        8.626
   W component             -6.31         0.00         5.77        1.797        5.286
   Horizontal (U&V)        19.30        34.13        45.30        3.674       10.767
   Total                   19.73        34.18        45.34        3.668       10.733

                       Min Reynolds     Mean Reynolds    Max Reynolds    Correlation
   Product             Stress (m/s)^2   Stress (m/s)^2   Stress (m/s)^2  Coefficient
   ----------------    --------------   --------------   --------------  -----------
   u'w'                    -38.662             0.498            60.156         0.075
   u'v'                    -71.599            -1.075            58.760        -0.100
   v'w'                    -27.065             0.206            34.919         0.039


   Friction Velocity (Ustar)  =      0.706 m/s
   Maximum Instantaneous TKE  =    119.232 (m/s)^2
   Maximum Instantaneous CTKE =     36.211 (m/s)^2


Grid Point Variance Summary:

   Y-coord  -82.50  -72.19  -61.88  -51.56  -41.25  -30.94  -20.62  -10.31    0.00   10.31   20.62   30.94   41.25   51.56   61.88   72.19   82.50

   Height   Standard deviation at grid points for the u component:
   182.50    3.542   3.792   3.788   3.623   3.590   3.629   3.679   3.759   3.745   3.628   3.521   3.556   3.564   3.613   3.702   3.780   3.673
   172.19    3.647   3.527   3.557   3.512   3.547   3.611   3.555   3.600   3.802   3.804   3.543   3.690   3.759   3.718   3.809   3.762   3.671
   161.88    3.467   3.493   3.450   3.506   3.660   3.637   3.631   3.642   3.784   3.605   3.723   3.492   3.745   3.786   3.896   3.816   3.529
   151.56    3.375   3.380   3.395   3.437   3.591   3.558   3.488   3.662   3.781   3.712   3.675   3.440   3.449   3.720   3.758   3.566   3.498
   141.25    3.294   3.359   3.427   3.465   3.382   3.571   3.512   3.581   3.805   3.808   3.636   3.460   3.539   3.687   3.610   3.563   3.481
   130.94    3.472   3.356   3.395   3.473   3.517   3.562   3.625   3.601   3.743   3.736   3.755   3.628   3.672   3.682   3.566   3.463   3.555
   120.62    3.392   3.378   3.338   3.428   3.524   3.603   3.664   3.454   3.501   3.654   3.670   3.744   3.641   3.657   3.523   3.558   3.481
   110.31    3.462   3.389   3.500   3.539   3.640   3.815   3.614   3.474   3.557   3.520   3.523   3.636   3.750   3.608   3.509   3.461   3.326
   100.00    3.486   3.448   3.398   3.606   3.686   3.757   3.564   3.594   3.684   3.601   3.551   3.478   3.522   3.598   3.568   3.442   3.369
    89.69    3.610   3.626   3.549   3.625   3.733   3.801   3.711   3.569   3.670   3.555   3.519   3.484   3.434   3.478   3.487   3.341   3.413
    79.38    3.580   3.666   3.617   3.590   3.629   3.821   3.622   3.628   3.740   3.718   3.478   3.647   3.726   3.593   3.381   3.507   3.401
    69.06    3.648   3.629   3.741   3.761   3.544   3.670   3.655   3.622   3.664   3.679   3.655   3.838   3.795   3.570   3.594   3.591   3.480
    58.75    3.612   3.605   3.854   3.874   3.648   3.563   3.594   3.486   3.555   3.554   3.686   3.784   3.677   3.664   3.577   3.559   3.458
    48.44    3.774   3.665   3.946   3.854   3.533   3.472   3.451   3.282   3.328   3.559   3.665   3.662   3.814   3.787   3.659   3.715   3.620
    38.12    3.795   3.811   3.849   3.827   3.704   3.603   3.434   3.564   3.555   3.529   3.564   3.635   3.687   3.632   3.552   3.707   3.467
    27.81    3.755   3.784   3.739   3.727   3.653   3.649   3.663   3.510   3.503   3.520   3.617   3.716   3.555   3.566   3.465   3.625   3.597
    17.50    3.658   3.539   3.652   3.527   3.533   3.561   3.532   3.551   3.418   3.544   3.494   3.589   3.641   3.621   3.433   3.635   3.537

   Height   Standard deviation at grid points for the v component:
   182.50    2.933   2.933   2.933   2.933   2.933   2.933   2.933   2.933   2.933   2.933   2.933   2.933   2.933   2.933   2.933   2.933   2.933
   172.19    2.933   2.933   2.933   2.933   2.933   2.933   2.933   2.933   2.933   2.933   2.933   2.933   2.933   2.933   2.933   2.933   2.933
   161.88    2.933   2.933   2.933   2.933   2.933   2.933   2.933   2.933   2.933   2.933   2.933   2.933   2.933   2.933   2.933   2.933   2.933
   151.56    2.933   2.933   2.933   2.933   2.933   2.933   2.933   2.933   2.933   2.933   2.933   2.933   2.933   2.933   2.933   2.933   2.933
   141.25    2.933   2.933   2.933   2.933   2.933   2.933   2.933   2.933   2.933   2.933   2.933   2.933   2.933   2.933   2.933   2.933   2.933
   130.94    2.933   2.933   2.933   2.933   2.933   2.933   2.933   2.933   2.933   2.933   2.933   2.933   2.933   2.933   2.933   2.933   2.933
   120.62    2.933   2.933   2.933   2.933   2.933   2.933   2.933   2.933   2.933   2.933   2.933   2.933   2.933   2.933   2.933   2.933   2.933
   110.31    2.933   2.933   2.933   2.933   2.933   2.933   2.933   2.933   2.933   2.933   2.933   2.933   2.933   2.933   2.933   2.933   2.933
   100.00    2.933   2.933   2.933   2.933   2.933   2.933   2.933   2.933   2.933   2.933   2.933   2.933   2.933   2.933   2.933   2.933   2.933
    89.69    2.933   2.933   2.933   2.933   2.933   2.933   2.933   2.933   2.933   2.933   2.933   2.933   2.933   2.933   2.933   2.933   2.933
    79.38    2.933   2.933   2.933   2.933   2.933   2.933   2.933   2.933   2.933   2.933   2.933   2.933   2.933   2.933   2.933   2.933   2.933
    69.06    2.933   2.933   2.933   2.933   2.933   2.933   2.933   2.933   2.933   2.933   2.933   2.933   2.933   2.933   2.933   2.933   2.933
    58.75    2.933   2.933   2.933   2.933   2.933   2.933   2.933   2.933   2.933   2.933   2.933   2.933   2.933   2.933   2.933   2.933   2.933
    48.44    2.933   2.933   2.933   2.933   2.933   2.933   2.933   2.933   2.933   2.933   2.933   2.933   2.933   2.933   2.933   2.933   2.933
    38.12    2.933   2.933   2.933   2.933   2.933   2.933   2.933   2.933   2.933   2.933   2.933   2.933   2.933   2.933   2.933   2.933   2.933
    27.81    2.933   2.933   2.933   2.933   2.933   2.933   2.933   2.933   2.933   2.933   2.933   2.933   2.933   2.933   2.933   2.933   2.933
    17.50    2.933   2.933   2.933   2.933   2.933   2.933   2.933   2.933   2.933   2.933   2.933   2.933   2.933   2.933   2.933   2.933   2.933

   Height   Standard deviation at grid points for the w component:
   182.50    1.797   1.797   1.797   1.797   1.797   1.797   1.797   1.797   1.797   1.797   1.797   1.797   1.797   1.797   1.797   1.797   1.797
   172.19    1.797   1.797   1.797   1.797   1.797   1.797   1.797   1.797   1.797   1.797   1.797   1.797   1.797   1.797   1.797   1.797   1.797
   161.88    1.797   1.797   1.797   1.797   1.797   1.797   1.797   1.797   1.797   1.797   1.797   1.797   1.797   1.797   1.797   1.797   1.797
   151.56    1.797   1.797   1.797   1.797   1.797   1.797   1.797   1.797   1.797   1.797   1.797   1.797   1.797   1.797   1.797   1.797   1.797
   141.25    1.797   1.797   1.797   1.797   1.797   1.797   1.797   1.797   1.797   1.797   1.797   1.797   1.797   1.797   1.797   1.797   1.797
   130.94    1.797   1.797   1.797   1.797   1.797   1.797   1.797   1.797   1.797   1.797   1.797   1.797   1.797   1.797   1.797   1.797   1.797
   120.62    1.797   1.797   1.797   1.797   1.797   1.797   1.797   1.797   1.797   1.797   1.797   1.797   1.797   1.797   1.797   1.797   1.797
   110.31    1.797   1.797   1.797   1.797   1.797   1.797   1.797   1.797   1.797   1.797   1.797   1.797   1.797   1.797   1.797   1.797   1.797
   100.00    1.797   1.797   1.797   1.797   1.797   1.797   1.797   1.797   1.797   1.797   1.797   1.797   1.797   1.797   1.797   1.797   1.797
    89.69    1.797   1.797   1.797   1.797   1.797   1.797   1.797   1.797   1.797   1.797   1.797   1.797   1.797   1.797   1.797   1.797   1.797
    79.38    1.797   1.797   1.797   1.797   1.797   1.797   1.797   1.797   1.797   1.797   1.797   1.797   1.797   1.797   1.797   1.797   1.797
    69.06    1.797   1.797   1.797   1.797   1.797   1.797   1.797   1.797   1.797   1.797   1.797   1.797   1.797   1.797   1.797   1.797   1.797
    58.75    1.797   1.797   1.797   1.797   1.797   1.797   1.797   1.797   1.797   1.797   1.797   1.797   1.797   1.797   1.797   1.797   1.797
    48.44    1.797   1.797   1.797   1.797   1.797   1.797   1.797   1.797   1.797   1.797   1.797   1.797   1.797   1.797   1.797   1.797   1.797
    38.12    1.797   1.797   1.797   1.797   1.797   1.797   1.797   1.797   1.797   1.797   1.797   1.797   1.797   1.797   1.797   1.797   1.797
    27.81    1.797   1.797   1.797   1.797   1.797   1.797   1.797   1.797   1.797   1.797   1.797   1.797   1.797   1.797   1.797   1.797   1.797
    17.50    1.797   1.797   1.797   1.797   1.797   1.797   1.797   1.797   1.797   1.797   1.797   1.797   1.797   1.797   1.797   1.797   1.797

   Mean standard deviation across all grid points:
      u component:    3.599 m/s
      v component:    2.933 m/s
      w component:    1.797 m/s


U-component (X) statistics from the hub grid point:

   Mean =  34.0000 m/s
   TI   =  10.8363 %


Normalizing Parameters for Binary Data (approximate statistics):

   UBar  =  34.0000 m/s
   TI(u) =  10.8363 %
   TI(v) =   8.6263 %
   TI(w) =   5.2863 %

   Height Offset =   0.0000 m
   Grid Base     =  17.5000 m

Nyquist frequency of turbulent wind field =        10.000 Hz


Processing complete.  6.4062 CPU seconds used.
