
This summary file was generated by TurbSim (v1.06.00, 21-Sep-2012) on 18-Jan-2026 at 22:56:08.


Runtime Options:

       200  Random seed #1
    RANLUX  Type of random number generator
         F  Output binary HH turbulence parameters?
         F  Output formatted turbulence parameters?
         F  Output AeroDyn HH files?
         F  Output AeroDyn FF files?
         T  Output BLADED FF files?
         T  Output tower data?
         F  Output formatted FF files?
         F  Output coherent turbulence time step file?
         T  Clockwise rotation when looking downwind?
 0 -  NONE  IEC turbulence models scaled to exact specified standard deviation


Turbine/Model Specifications:

        17  Vertical grid-point matrix dimension
        17  Horizontal grid-point matrix dimension
     0.050  Time step [seconds]
    60.000  Analysis time [seconds]
   660.000  Usable output time [seconds]
   100.000  Hub height [m]
   165.000  Grid height [m]
   165.000  Grid width [m]
     0.000  Vertical flow angle [degrees]
     0.000  Horizontal flow angle [degrees]


Meteorological Boundary Conditions:

    IECKAI  IEC Kaimal spectral model
         1  IEC standard: IEC 61400-1 Ed. 3: 2005
         A  IEC turbulence characteristic
       NTM  IEC Normal Turbulence Model
       N/A  IEC Extreme Turbulence Model (ETM) "c" parameter [m/s]
       IEC  Wind profile type
   100.000  Reference height [m]
    12.400  Reference wind speed [m/s]
       N/A  Jet height [m]
     0.200  Power law exponent
     0.030  Surface roughness length [m]


You have requested that the following file(s) be generated:

   12ms_2A.wnd (AeroDyn/BLADED full-field wnd file)
   12ms_2A.twr (Binary tower twr file)


Turbulence Simulation Scaling Parameter Summary:

   Turbulence model used                            =  IEC Kaimal
   Turbulence characteristic                        =  A
   IEC turbulence type                              =  Normal Turbulence Model
   IEC standard                                     =  IEC 61400-1 Ed. 3: 2005
   Mean wind speed at hub height                    =   12.400 m/s
   Expected value of turbulence intensity at 15 m/s =   16.000%
   Characteristic value of standard deviation       =    2.384 m/s
   Turbulence scale                                 =   42.000 m
   u-component integral scale                       =  340.200 m
   Coherency scale                                  =  340.200 m
   Characteristic value of hub turbulence intensity =   19.226%
   Gradient Richardson number                       =    0.000

   Wind profile type                                =  Power law on rotor disk, logarithmic elsewhere
   Power law exponent                               =    0.200
   Mean shear across rotor disk                     =    0.032 (m/s)/m
   Assumed rotor diameter                           =  165.000 m
   Surface roughness length                         =    0.030 m

   Number of time steps in the FFT                  =    13500
   Number of time steps output                      =    13467


Mean Flow Angles:

   Vertical   =   0.0 degrees
   Horizontal =   0.0 degrees

Mean Wind Speed Profile:

   Height    Wind Speed   Horizontal Angle  U-comp (X)   V-comp (Y)   W-comp (Z)
     (m)        (m/s)         (degrees)       (m/s)        (m/s)        (m/s)   
   ------    ----------   ----------------  ----------   ----------   ----------
    182.5       13.99            0.00         13.99         0.00         0.00
    172.2       13.82            0.00         13.82         0.00         0.00
    161.9       13.65            0.00         13.65         0.00         0.00
    151.6       13.48            0.00         13.48         0.00         0.00
    141.2       13.29            0.00         13.29         0.00         0.00
    130.9       13.09            0.00         13.09         0.00         0.00
    120.6       12.87            0.00         12.87         0.00         0.00
    110.3       12.65            0.00         12.65         0.00         0.00
    100.0       12.40            0.00         12.40         0.00         0.00
     89.7       12.13            0.00         12.13         0.00         0.00
     79.4       11.84            0.00         11.84         0.00         0.00
     69.1       11.52            0.00         11.52         0.00         0.00
     58.8       11.15            0.00         11.15         0.00         0.00
     48.4       10.73            0.00         10.73         0.00         0.00
     38.1       10.23            0.00         10.23         0.00         0.00
     27.8        9.60            0.00          9.60         0.00         0.00
     17.5        8.75            0.00          8.75         0.00         0.00
      7.2        8.38            0.00          8.38         0.00         0.00


Harvested Random Seeds after Generation of the Random Numbers:

     54565213 K1
            0 K2


Hub-Height Simulated Turbulence Statistical Summary:

   Type of Wind        Min (m/s)   Mean (m/s)    Max (m/s)  Sigma (m/s)       TI (%)
   ----------------    ---------   ----------    ---------  -----------       ------
   Longitudinal (u)         5.65        12.40        18.32        1.831       14.766
   Lateral (v)             -5.89         0.00         5.80        1.867       15.059
   Vertical (w)            -4.45         0.00         4.04        1.165        9.396
   U component              5.65        12.40        18.32        1.831       14.766
   V component             -5.89         0.00         5.80        1.867       15.059
   W component             -4.45         0.00         4.04        1.165        9.396
   Horizontal (U&V)         5.66        12.54        18.56        1.810       14.428
   Total                    5.74        12.60        18.58        1.796       14.257

                       Min Reynolds     Mean Reynolds    Max Reynolds    Correlation
   Product             Stress (m/s)^2   Stress (m/s)^2   Stress (m/s)^2  Coefficient
   ----------------    --------------   --------------   --------------  -----------
   u'w'                    -11.006             0.252            16.692         0.118
   u'v'                    -22.206            -0.295            21.217        -0.086
   v'w'                    -16.127            -0.065            12.137        -0.030


   Friction Velocity (Ustar)  =      0.502 m/s
   Maximum Instantaneous TKE  =     24.004 (m/s)^2
   Maximum Instantaneous CTKE =     12.082 (m/s)^2


Grid Point Variance Summary:

   Y-coord  -82.50  -72.19  -61.88  -51.56  -41.25  -30.94  -20.62  -10.31    0.00   10.31   20.62   30.94   41.25   51.56   61.88   72.19   82.50

   Height   Standard deviation at grid points for the u component:
   182.50    2.466   2.349   2.404   2.332   2.192   2.016   2.089   2.178   2.063   2.141   2.209   2.252   2.160   2.170   2.261   2.220   2.146
   172.19    2.349   2.344   2.175   2.264   2.200   1.985   1.965   2.148   2.222   2.065   2.100   2.063   2.137   2.161   2.131   2.122   1.951
   161.88    2.245   2.224   2.240   2.029   2.126   2.139   2.001   2.090   2.223   2.200   2.120   2.000   2.148   2.196   1.971   1.939   2.019
   151.56    2.362   2.365   2.164   2.070   2.070   2.005   1.860   2.021   2.088   2.037   2.229   2.158   2.066   2.102   1.951   1.991   2.022
   141.25    2.155   2.378   2.223   2.055   1.961   2.003   2.022   1.954   1.885   1.974   2.064   2.112   2.127   2.042   2.020   2.073   2.080
   130.94    2.196   2.243   2.174   2.102   1.927   1.961   1.930   1.823   1.961   1.926   2.029   2.022   2.152   2.167   2.090   2.078   2.007
   120.62    2.203   2.143   2.079   2.070   2.140   2.003   1.943   1.995   1.965   1.929   2.102   2.101   2.089   2.080   2.088   1.946   2.000
   110.31    2.119   2.082   2.069   2.124   2.206   2.100   1.930   1.940   1.988   1.866   2.002   2.111   2.146   2.012   1.842   1.976   2.005
   100.00    2.119   2.147   2.072   2.139   2.075   1.960   1.989   1.916   1.831   2.050   2.014   2.103   2.092   1.963   1.731   1.789   1.905
    89.69    2.211   2.100   2.109   1.973   1.992   1.982   1.960   1.917   1.861   1.996   2.112   2.101   2.133   2.018   1.857   2.014   1.908
    79.38    2.146   2.147   2.218   2.032   1.917   1.858   1.811   1.913   1.987   2.035   2.120   2.065   2.198   2.046   2.043   1.962   1.952
    69.06    2.118   2.134   2.162   2.138   2.071   1.952   1.877   1.909   2.070   2.136   2.267   2.345   2.280   2.165   2.271   2.297   2.366
    58.75    2.018   1.870   2.023   2.122   2.204   2.157   1.988   1.945   2.226   2.342   2.274   2.349   2.259   2.362   2.442   2.318   2.425
    48.44    2.077   2.064   2.092   2.034   2.127   2.010   2.068   2.126   2.215   2.445   2.408   2.374   2.415   2.538   2.434   2.275   2.401
    38.12    2.151   2.062   2.131   2.185   2.062   2.213   2.095   2.023   2.286   2.407   2.236   2.356   2.463   2.500   2.502   2.505   2.586
    27.81    2.172   2.125   2.051   2.120   2.045   2.136   2.102   2.143   2.248   2.320   2.309   2.335   2.478   2.260   2.425   2.472   2.269
    17.50    2.283   2.425   2.228   2.129   2.120   2.180   2.054   1.999   2.295   2.330   2.307   2.220   2.363   2.341   2.222   2.438   2.220

   Height   Standard deviation at grid points for the v component:
   182.50    1.867   1.867   1.867   1.867   1.867   1.867   1.867   1.867   1.867   1.867   1.867   1.867   1.867   1.867   1.867   1.867   1.867
   172.19    1.867   1.867   1.867   1.867   1.867   1.867   1.867   1.867   1.867   1.867   1.867   1.867   1.867   1.867   1.867   1.867   1.867
   161.88    1.867   1.867   1.867   1.867   1.867   1.867   1.867   1.867   1.867   1.867   1.867   1.867   1.867   1.867   1.867   1.867   1.867
   151.56    1.867   1.867   1.867   1.867   1.867   1.867   1.867   1.867   1.867   1.867   1.867   1.867   1.867   1.867   1.867   1.867   1.867
   141.25    1.867   1.867   1.867   1.867   1.867   1.867   1.867   1.867   1.867   1.867   1.867   1.867   1.867   1.867   1.867   1.867   1.867
   130.94    1.867   1.867   1.867   1.867   1.867   1.867   1.867   1.867   1.867   1.867   1.867   1.867   1.867   1.867   1.867   1.867   1.867
   120.62    1.867   1.867   1.867   1.867   1.867   1.867   1.867   1.867   1.867   1.867   1.867   1.867   1.867   1.867   1.867   1.867   1.867
   110.31    1.867   1.867   1.867   1.867   1.867   1.867   1.867   1.867   1.867   1.867   1.867   1.867   1.867   1.867   1.867   1.867   1.867
   100.00    1.867   1.867   1.867   1.867   1.867   1.867   1.867   1.867   1.867   1.867   1.867   1.867   1.867   1.867   1.867   1.867   1.867
    89.69    1.867   1.867   1.867   1.867   1.867   1.867   1.867   1.867   1.867   1.867   1.867   1.867   1.867   1.867   1.867   1.867   1.867
    79.38    1.867   1.867   1.867   1.867   1.867   1.867   1.867   1.867   1.867   1.867   1.867   1.867   1.867   1.867   1.867   1.867   1.867
    69.06    1.867   1.867   1.867   1.867   1.867   1.867   1.867   1.867   1.867   1.867   1.867   1.867   1.867   1.867   1.867   1.867   1.867
    58.75    1.867   1.867   1.867   1.867   1.867   1.867   1.867   1.867   1.867   1.867   1.867   1.867   1.867   1.867   1.867   1.867   1.867
    48.44    1.867   1.867   1.867   1.867   1.867   1.867   1.867   1.867   1.867   1.867   1.867   1.867   1.867   1.867   1.867   1.867   1.867
    38.12    1.867   1.867   1.867   1.867   1.867   1.867   1.867   1.867   1.867   1.867   1.867   1.867   1.867   1.867   1.867   1.867   1.867
    27.81    1.867   1.867   1.867   1.867   1.867   1.867   1.867   1.867   1.867   1.867   1.867   1.867   1.867   1.867   1.867   1.867   1.867
    17.50    1.867   1.867   1.867   1.867   1.867   1.867   1.867   1.867   1.867   1.867   1.867   1.867   1.867   1.867   1.867   1.867   1.867

   Height   Standard deviation at grid points for the w component:
   182.50    1.165   1.165   1.165   1.165   1.165   1.165   1.165   1.165   1.165   1.165   1.165   1.165   1.165   1.165   1.165   1.165   1.165
   172.19    1.165   1.165   1.165   1.165   1.165   1.165   1.165   1.165   1.165   1.165   1.165   1.165   1.165   1.165   1.165   1.165   1.165
   161.88    1.165   1.165   1.165   1.165   1.165   1.165   1.165   1.165   1.165   1.165   1.165   1.165   1.165   1.165   1.165   1.165   1.165
   151.56    1.165   1.165   1.165   1.165   1.165   1.165   1.165   1.165   1.165   1.165   1.165   1.165   1.165   1.165   1.165   1.165   1.165
   141.25    1.165   1.165   1.165   1.165   1.165   1.165   1.165   1.165   1.165   1.165   1.165   1.165   1.165   1.165   1.165   1.165   1.165
   130.94    1.165   1.165   1.165   1.165   1.165   1.165   1.165   1.165   1.165   1.165   1.165   1.165   1.165   1.165   1.165   1.165   1.165
   120.62    1.165   1.165   1.165   1.165   1.165   1.165   1.165   1.165   1.165   1.165   1.165   1.165   1.165   1.165   1.165   1.165   1.165
   110.31    1.165   1.165   1.165   1.165   1.165   1.165   1.165   1.165   1.165   1.165   1.165   1.165   1.165   1.165   1.165   1.165   1.165
   100.00    1.165   1.165   1.165   1.165   1.165   1.165   1.165   1.165   1.165   1.165   1.165   1.165   1.165   1.165   1.165   1.165   1.165
    89.69    1.165   1.165   1.165   1.165   1.165   1.165   1.165   1.165   1.165   1.165   1.165   1.165   1.165   1.165   1.165   1.165   1.165
    79.38    1.165   1.165   1.165   1.165   1.165   1.165   1.165   1.165   1.165   1.165   1.165   1.165   1.165   1.165   1.165   1.165   1.165
    69.06    1.165   1.165   1.165   1.165   1.165   1.165   1.165   1.165   1.165   1.165   1.165   1.165   1.165   1.165   1.165   1.165   1.165
    58.75    1.165   1.165   1.165   1.165   1.165   1.165   1.165   1.165   1.165   1.165   1.165   1.165   1.165   1.165   1.165   1.165   1.165
    48.44    1.165   1.165   1.165   1.165   1.165   1.165   1.165   1.165   1.165   1.165   1.165   1.165   1.165   1.165   1.165   1.165   1.165
    38.12    1.165   1.165   1.165   1.165   1.165   1.165   1.165   1.165   1.165   1.165   1.165   1.165   1.165   1.165   1.165   1.165   1.165
    27.81    1.165   1.165   1.165   1.165   1.165   1.165   1.165   1.165   1.165   1.165   1.165   1.165   1.165   1.165   1.165   1.165   1.165
    17.50    1.165   1.165   1.165   1.165   1.165   1.165   1.165   1.165   1.165   1.165   1.165   1.165   1.165   1.165   1.165   1.165   1.165

   Mean standard deviation across all grid points:
      u component:    2.126 m/s
      v component:    1.867 m/s
      w component:    1.165 m/s


U-component (X) statistics from the hub grid point:

   Mean =  12.4000 m/s
   TI   =  14.7661 %


Normalizing Parameters for Binary Data (approximate statistics):

   UBar  =  12.4000 m/s
   TI(u) =  14.7661 %
   TI(v) =  15.0590 %
   TI(w) =   9.3963 %

   Height Offset =   0.0000 m
   Grid Base     =  17.5000 m

Nyquist frequency of turbulent wind field =        10.000 Hz


Processing complete.  5.7031 CPU seconds used.
