
This summary file was generated by TurbSim (v1.06.00, 21-Sep-2012) on 18-Jan-2026 at 22:31:57.


Runtime Options:

       200  Random seed #1
    RANLUX  Type of random number generator
         F  Output binary HH turbulence parameters?
         F  Output formatted turbulence parameters?
         F  Output AeroDyn HH files?
         F  Output AeroDyn FF files?
         T  Output BLADED FF files?
         T  Output tower data?
         F  Output formatted FF files?
         F  Output coherent turbulence time step file?
         T  Clockwise rotation when looking downwind?
 0 -  NONE  IEC turbulence models scaled to exact specified standard deviation


Turbine/Model Specifications:

        17  Vertical grid-point matrix dimension
        17  Horizontal grid-point matrix dimension
     0.050  Time step [seconds]
    60.000  Analysis time [seconds]
   660.000  Usable output time [seconds]
   100.000  Hub height [m]
   165.000  Grid height [m]
   165.000  Grid width [m]
     0.000  Vertical flow angle [degrees]
     0.000  Horizontal flow angle [degrees]


Meteorological Boundary Conditions:

    IECKAI  IEC Kaimal spectral model
         1  IEC standard: IEC 61400-1 Ed. 3: 2005
         A  IEC turbulence characteristic
       NTM  IEC Normal Turbulence Model
       N/A  IEC Extreme Turbulence Model (ETM) "c" parameter [m/s]
       IEC  Wind profile type
   100.000  Reference height [m]
     8.400  Reference wind speed [m/s]
       N/A  Jet height [m]
     0.200  Power law exponent
     0.030  Surface roughness length [m]


You have requested that the following file(s) be generated:

   8ms_2A.wnd (AeroDyn/BLADED full-field wnd file)
   8ms_2A.twr (Binary tower twr file)


Turbulence Simulation Scaling Parameter Summary:

   Turbulence model used                            =  IEC Kaimal
   Turbulence characteristic                        =  A
   IEC turbulence type                              =  Normal Turbulence Model
   IEC standard                                     =  IEC 61400-1 Ed. 3: 2005
   Mean wind speed at hub height                    =    8.400 m/s
   Expected value of turbulence intensity at 15 m/s =   16.000%
   Characteristic value of standard deviation       =    1.904 m/s
   Turbulence scale                                 =   42.000 m
   u-component integral scale                       =  340.200 m
   Coherency scale                                  =  340.200 m
   Characteristic value of hub turbulence intensity =   22.667%
   Gradient Richardson number                       =    0.000

   Wind profile type                                =  Power law on rotor disk, logarithmic elsewhere
   Power law exponent                               =    0.200
   Mean shear across rotor disk                     =    0.021 (m/s)/m
   Assumed rotor diameter                           =  165.000 m
   Surface roughness length                         =    0.030 m

   Number of time steps in the FFT                  =    13600
   Number of time steps output                      =    13593


Mean Flow Angles:

   Vertical   =   0.0 degrees
   Horizontal =   0.0 degrees

Mean Wind Speed Profile:

   Height    Wind Speed   Horizontal Angle  U-comp (X)   V-comp (Y)   W-comp (Z)
     (m)        (m/s)         (degrees)       (m/s)        (m/s)        (m/s)   
   ------    ----------   ----------------  ----------   ----------   ----------
    182.5        9.47            0.00          9.47         0.00         0.00
    172.2        9.36            0.00          9.36         0.00         0.00
    161.9        9.25            0.00          9.25         0.00         0.00
    151.6        9.13            0.00          9.13         0.00         0.00
    141.2        9.00            0.00          9.00         0.00         0.00
    130.9        8.87            0.00          8.87         0.00         0.00
    120.6        8.72            0.00          8.72         0.00         0.00
    110.3        8.57            0.00          8.57         0.00         0.00
    100.0        8.40            0.00          8.40         0.00         0.00
     89.7        8.22            0.00          8.22         0.00         0.00
     79.4        8.02            0.00          8.02         0.00         0.00
     69.1        7.80            0.00          7.80         0.00         0.00
     58.8        7.55            0.00          7.55         0.00         0.00
     48.4        7.27            0.00          7.27         0.00         0.00
     38.1        6.93            0.00          6.93         0.00         0.00
     27.8        6.50            0.00          6.50         0.00         0.00
     17.5        5.93            0.00          5.93         0.00         0.00
      7.2        5.67            0.00          5.67         0.00         0.00


Harvested Random Seeds after Generation of the Random Numbers:

     54969500 K1
            0 K2


Hub-Height Simulated Turbulence Statistical Summary:

   Type of Wind        Min (m/s)   Mean (m/s)    Max (m/s)  Sigma (m/s)       TI (%)
   ----------------    ---------   ----------    ---------  -----------       ------
   Longitudinal (u)         1.58         8.40        12.75        1.814       21.593
   Lateral (v)             -4.84         0.00         4.66        1.485       17.675
   Vertical (w)            -3.24         0.00         3.67        0.933       11.110
   U component              1.58         8.40        12.75        1.814       21.593
   V component             -4.84         0.00         4.66        1.485       17.675
   W component             -3.24         0.00         3.67        0.933       11.110
   Horizontal (U&V)         1.66         8.53        12.77        1.792       20.991
   Total                    1.80         8.59        12.77        1.784       20.779

                       Min Reynolds     Mean Reynolds    Max Reynolds    Correlation
   Product             Stress (m/s)^2   Stress (m/s)^2   Stress (m/s)^2  Coefficient
   ----------------    --------------   --------------   --------------  -----------
   u'w'                     -9.109             0.141            15.740         0.083
   u'v'                    -12.026             0.559            14.334         0.207
   v'w'                     -9.064             0.175            10.837         0.127


   Friction Velocity (Ustar)  =      0.375 m/s
   Maximum Instantaneous TKE  =     23.943 (m/s)^2
   Maximum Instantaneous CTKE =      8.579 (m/s)^2


Grid Point Variance Summary:

   Y-coord  -82.50  -72.19  -61.88  -51.56  -41.25  -30.94  -20.62  -10.31    0.00   10.31   20.62   30.94   41.25   51.56   61.88   72.19   82.50

   Height   Standard deviation at grid points for the u component:
   182.50    1.684   1.828   1.719   1.637   1.659   1.703   1.553   1.563   1.578   1.597   1.644   1.738   1.658   1.490   1.505   1.701   1.634
   172.19    1.820   1.902   1.806   1.845   1.839   1.699   1.507   1.552   1.474   1.533   1.502   1.613   1.712   1.600   1.617   1.704   1.608
   161.88    1.763   1.619   1.617   1.729   1.694   1.677   1.438   1.547   1.474   1.430   1.543   1.622   1.617   1.714   1.734   1.701   1.665
   151.56    1.884   1.755   1.759   1.692   1.620   1.688   1.575   1.589   1.549   1.767   1.621   1.622   1.549   1.795   1.860   1.807   1.799
   141.25    1.816   1.722   1.866   1.759   1.821   1.777   1.655   1.632   1.630   1.803   1.843   1.751   1.734   1.819   1.787   1.772   1.713
   130.94    1.966   1.834   1.946   1.737   1.867   1.807   1.637   1.602   1.699   1.906   1.887   1.916   1.764   1.954   1.925   1.839   1.697
   120.62    2.283   2.045   2.032   2.001   1.876   1.783   1.544   1.634   1.803   1.980   2.064   2.073   1.902   1.976   2.018   1.993   1.873
   110.31    2.216   2.058   2.050   1.973   1.942   1.909   1.697   1.704   1.822   1.742   1.756   1.931   2.022   2.226   2.340   2.115   2.005
   100.00    2.215   2.009   2.018   1.919   1.907   1.747   1.694   1.745   1.814   1.851   1.787   1.973   1.989   2.237   2.220   2.070   2.098
    89.69    2.167   2.074   1.930   1.886   1.946   1.823   1.764   1.793   1.734   1.865   1.739   1.861   1.968   2.068   2.075   2.080   2.002
    79.38    2.071   2.056   1.821   1.849   1.821   1.748   1.748   1.857   1.854   1.969   1.891   2.008   1.863   1.919   1.884   2.029   1.949
    69.06    1.854   1.794   1.898   1.735   1.763   1.790   1.954   1.870   1.941   1.838   1.894   1.895   1.678   1.751   1.748   1.922   1.866
    58.75    1.889   1.846   1.840   1.819   1.876   1.775   1.956   1.912   1.874   1.852   1.975   1.862   1.729   1.784   1.719   1.889   1.773
    48.44    2.021   1.889   1.893   1.834   1.911   1.833   1.768   1.782   1.583   1.610   1.736   1.821   1.783   1.707   1.812   2.000   1.857
    38.12    2.030   1.750   1.898   1.833   1.791   1.706   1.613   1.663   1.561   1.532   1.707   1.742   1.701   1.788   1.665   1.873   1.782
    27.81    1.796   1.781   1.826   1.772   1.578   1.705   1.739   1.751   1.727   1.731   1.752   1.793   1.825   1.667   1.741   1.809   1.754
    17.50    1.793   1.930   1.878   1.788   1.712   1.626   1.638   1.731   1.755   1.803   1.837   1.809   1.880   1.776   1.659   1.617   1.715

   Height   Standard deviation at grid points for the v component:
   182.50    1.485   1.485   1.485   1.485   1.485   1.485   1.485   1.485   1.485   1.485   1.485   1.485   1.485   1.485   1.485   1.485   1.485
   172.19    1.485   1.485   1.485   1.485   1.485   1.485   1.485   1.485   1.485   1.485   1.485   1.485   1.485   1.485   1.485   1.485   1.485
   161.88    1.485   1.485   1.485   1.485   1.485   1.485   1.485   1.485   1.485   1.485   1.485   1.485   1.485   1.485   1.485   1.485   1.485
   151.56    1.485   1.485   1.485   1.485   1.485   1.485   1.485   1.485   1.485   1.485   1.485   1.485   1.485   1.485   1.485   1.485   1.485
   141.25    1.485   1.485   1.485   1.485   1.485   1.485   1.485   1.485   1.485   1.485   1.485   1.485   1.485   1.485   1.485   1.485   1.485
   130.94    1.485   1.485   1.485   1.485   1.485   1.485   1.485   1.485   1.485   1.485   1.485   1.485   1.485   1.485   1.485   1.485   1.485
   120.62    1.485   1.485   1.485   1.485   1.485   1.485   1.485   1.485   1.485   1.485   1.485   1.485   1.485   1.485   1.485   1.485   1.485
   110.31    1.485   1.485   1.485   1.485   1.485   1.485   1.485   1.485   1.485   1.485   1.485   1.485   1.485   1.485   1.485   1.485   1.485
   100.00    1.485   1.485   1.485   1.485   1.485   1.485   1.485   1.485   1.485   1.485   1.485   1.485   1.485   1.485   1.485   1.485   1.485
    89.69    1.485   1.485   1.485   1.485   1.485   1.485   1.485   1.485   1.485   1.485   1.485   1.485   1.485   1.485   1.485   1.485   1.485
    79.38    1.485   1.485   1.485   1.485   1.485   1.485   1.485   1.485   1.485   1.485   1.485   1.485   1.485   1.485   1.485   1.485   1.485
    69.06    1.485   1.485   1.485   1.485   1.485   1.485   1.485   1.485   1.485   1.485   1.485   1.485   1.485   1.485   1.485   1.485   1.485
    58.75    1.485   1.485   1.485   1.485   1.485   1.485   1.485   1.485   1.485   1.485   1.485   1.485   1.485   1.485   1.485   1.485   1.485
    48.44    1.485   1.485   1.485   1.485   1.485   1.485   1.485   1.485   1.485   1.485   1.485   1.485   1.485   1.485   1.485   1.485   1.485
    38.12    1.485   1.485   1.485   1.485   1.485   1.485   1.485   1.485   1.485   1.485   1.485   1.485   1.485   1.485   1.485   1.485   1.485
    27.81    1.485   1.485   1.485   1.485   1.485   1.485   1.485   1.485   1.485   1.485   1.485   1.485   1.485   1.485   1.485   1.485   1.485
    17.50    1.485   1.485   1.485   1.485   1.485   1.485   1.485   1.485   1.485   1.485   1.485   1.485   1.485   1.485   1.485   1.485   1.485

   Height   Standard deviation at grid points for the w component:
   182.50    0.933   0.933   0.933   0.933   0.933   0.933   0.933   0.933   0.933   0.933   0.933   0.933   0.933   0.933   0.933   0.933   0.933
   172.19    0.933   0.933   0.933   0.933   0.933   0.933   0.933   0.933   0.933   0.933   0.933   0.933   0.933   0.933   0.933   0.933   0.933
   161.88    0.933   0.933   0.933   0.933   0.933   0.933   0.933   0.933   0.933   0.933   0.933   0.933   0.933   0.933   0.933   0.933   0.933
   151.56    0.933   0.933   0.933   0.933   0.933   0.933   0.933   0.933   0.933   0.933   0.933   0.933   0.933   0.933   0.933   0.933   0.933
   141.25    0.933   0.933   0.933   0.933   0.933   0.933   0.933   0.933   0.933   0.933   0.933   0.933   0.933   0.933   0.933   0.933   0.933
   130.94    0.933   0.933   0.933   0.933   0.933   0.933   0.933   0.933   0.933   0.933   0.933   0.933   0.933   0.933   0.933   0.933   0.933
   120.62    0.933   0.933   0.933   0.933   0.933   0.933   0.933   0.933   0.933   0.933   0.933   0.933   0.933   0.933   0.933   0.933   0.933
   110.31    0.933   0.933   0.933   0.933   0.933   0.933   0.933   0.933   0.933   0.933   0.933   0.933   0.933   0.933   0.933   0.933   0.933
   100.00    0.933   0.933   0.933   0.933   0.933   0.933   0.933   0.933   0.933   0.933   0.933   0.933   0.933   0.933   0.933   0.933   0.933
    89.69    0.933   0.933   0.933   0.933   0.933   0.933   0.933   0.933   0.933   0.933   0.933   0.933   0.933   0.933   0.933   0.933   0.933
    79.38    0.933   0.933   0.933   0.933   0.933   0.933   0.933   0.933   0.933   0.933   0.933   0.933   0.933   0.933   0.933   0.933   0.933
    69.06    0.933   0.933   0.933   0.933   0.933   0.933   0.933   0.933   0.933   0.933   0.933   0.933   0.933   0.933   0.933   0.933   0.933
    58.75    0.933   0.933   0.933   0.933   0.933   0.933   0.933   0.933   0.933   0.933   0.933   0.933   0.933   0.933   0.933   0.933   0.933
    48.44    0.933   0.933   0.933   0.933   0.933   0.933   0.933   0.933   0.933   0.933   0.933   0.933   0.933   0.933   0.933   0.933   0.933
    38.12    0.933   0.933   0.933   0.933   0.933   0.933   0.933   0.933   0.933   0.933   0.933   0.933   0.933   0.933   0.933   0.933   0.933
    27.81    0.933   0.933   0.933   0.933   0.933   0.933   0.933   0.933   0.933   0.933   0.933   0.933   0.933   0.933   0.933   0.933   0.933
    17.50    0.933   0.933   0.933   0.933   0.933   0.933   0.933   0.933   0.933   0.933   0.933   0.933   0.933   0.933   0.933   0.933   0.933

   Mean standard deviation across all grid points:
      u component:    1.803 m/s
      v component:    1.485 m/s
      w component:    0.933 m/s


U-component (X) statistics from the hub grid point:

   Mean =   8.4000 m/s
   TI   =  21.5933 %


Normalizing Parameters for Binary Data (approximate statistics):

   UBar  =   8.4000 m/s
   TI(u) =  21.5933 %
   TI(v) =  17.6752 %
   TI(w) =  11.1103 %

   Height Offset =   0.0000 m
   Grid Base     =  17.5000 m

Nyquist frequency of turbulent wind field =        10.000 Hz


Processing complete.  6.375 CPU seconds used.
