
This summary file was generated by TurbSim (v1.06.00, 21-Sep-2012) on 21-Dec-2025 at 12:36:22.


Runtime Options:

    100000  Random seed #1
    RANLUX  Type of random number generator
         F  Output binary HH turbulence parameters?
         F  Output formatted turbulence parameters?
         F  Output AeroDyn HH files?
         F  Output AeroDyn FF files?
         T  Output BLADED FF files?
         T  Output tower data?
         F  Output formatted FF files?
         F  Output coherent turbulence time step file?
         T  Clockwise rotation when looking downwind?
 0 -  NONE  IEC turbulence models scaled to exact specified standard deviation


Turbine/Model Specifications:

        17  Vertical grid-point matrix dimension
        17  Horizontal grid-point matrix dimension
     0.050  Time step [seconds]
    60.000  Analysis time [seconds]
   660.000  Usable output time [seconds]
   100.000  Hub height [m]
   165.000  Grid height [m]
   165.000  Grid width [m]
     0.000  Vertical flow angle [degrees]
     0.000  Horizontal flow angle [degrees]


Meteorological Boundary Conditions:

    IECKAI  IEC Kaimal spectral model
         1  IEC standard: IEC 61400-1 Ed. 3: 2005
         A  IEC turbulence characteristic
       NTM  IEC Normal Turbulence Model
       N/A  IEC Extreme Turbulence Model (ETM) "c" parameter [m/s]
       IEC  Wind profile type
   100.000  Reference height [m]
     8.400  Reference wind speed [m/s]
       N/A  Jet height [m]
     0.200  Power law exponent
     0.030  Surface roughness length [m]


You have requested that the following file(s) be generated:

   8ms_2A.wnd (AeroDyn/BLADED full-field wnd file)
   8ms_2A.twr (Binary tower twr file)


Turbulence Simulation Scaling Parameter Summary:

   Turbulence model used                            =  IEC Kaimal
   Turbulence characteristic                        =  A
   IEC turbulence type                              =  Normal Turbulence Model
   IEC standard                                     =  IEC 61400-1 Ed. 3: 2005
   Mean wind speed at hub height                    =    8.400 m/s
   Expected value of turbulence intensity at 15 m/s =   16.000%
   Characteristic value of standard deviation       =    1.904 m/s
   Turbulence scale                                 =   42.000 m
   u-component integral scale                       =  340.200 m
   Coherency scale                                  =  340.200 m
   Characteristic value of hub turbulence intensity =   22.667%
   Gradient Richardson number                       =    0.000

   Wind profile type                                =  Power law on rotor disk, logarithmic elsewhere
   Power law exponent                               =    0.200
   Mean shear across rotor disk                     =    0.021 (m/s)/m
   Assumed rotor diameter                           =  165.000 m
   Surface roughness length                         =    0.030 m

   Number of time steps in the FFT                  =    13600
   Number of time steps output                      =    13593


Mean Flow Angles:

   Vertical   =   0.0 degrees
   Horizontal =   0.0 degrees

Mean Wind Speed Profile:

   Height    Wind Speed   Horizontal Angle  U-comp (X)   V-comp (Y)   W-comp (Z)
     (m)        (m/s)         (degrees)       (m/s)        (m/s)        (m/s)   
   ------    ----------   ----------------  ----------   ----------   ----------
    182.5        9.47            0.00          9.47         0.00         0.00
    172.2        9.36            0.00          9.36         0.00         0.00
    161.9        9.25            0.00          9.25         0.00         0.00
    151.6        9.13            0.00          9.13         0.00         0.00
    141.2        9.00            0.00          9.00         0.00         0.00
    130.9        8.87            0.00          8.87         0.00         0.00
    120.6        8.72            0.00          8.72         0.00         0.00
    110.3        8.57            0.00          8.57         0.00         0.00
    100.0        8.40            0.00          8.40         0.00         0.00
     89.7        8.22            0.00          8.22         0.00         0.00
     79.4        8.02            0.00          8.02         0.00         0.00
     69.1        7.80            0.00          7.80         0.00         0.00
     58.8        7.55            0.00          7.55         0.00         0.00
     48.4        7.27            0.00          7.27         0.00         0.00
     38.1        6.93            0.00          6.93         0.00         0.00
     27.8        6.50            0.00          6.50         0.00         0.00
     17.5        5.93            0.00          5.93         0.00         0.00
      7.2        5.67            0.00          5.67         0.00         0.00


Harvested Random Seeds after Generation of the Random Numbers:

     54969500 K1
            0 K2


Hub-Height Simulated Turbulence Statistical Summary:

   Type of Wind        Min (m/s)   Mean (m/s)    Max (m/s)  Sigma (m/s)       TI (%)
   ----------------    ---------   ----------    ---------  -----------       ------
   Longitudinal (u)         3.95         8.40        13.69        1.508       17.946
   Lateral (v)             -5.57         0.00         5.78        1.485       17.675
   Vertical (w)            -3.79         0.00         3.69        0.933       11.110
   U component              3.95         8.40        13.69        1.508       17.946
   V component             -5.57         0.00         5.78        1.485       17.675
   W component             -3.79         0.00         3.69        0.933       11.110
   Horizontal (U&V)         3.96         8.53        13.76        1.522       17.843
   Total                    4.19         8.58        13.83        1.515       17.658

                       Min Reynolds     Mean Reynolds    Max Reynolds    Correlation
   Product             Stress (m/s)^2   Stress (m/s)^2   Stress (m/s)^2  Coefficient
   ----------------    --------------   --------------   --------------  -----------
   u'w'                     -8.417             0.099            12.386         0.070
   u'v'                    -20.555            -0.145            13.340        -0.065
   v'w'                     -8.530            -0.047             8.585        -0.034


   Friction Velocity (Ustar)  =      0.315 m/s
   Maximum Instantaneous TKE  =     21.892 (m/s)^2
   Maximum Instantaneous CTKE =     10.316 (m/s)^2


Grid Point Variance Summary:

   Y-coord  -82.50  -72.19  -61.88  -51.56  -41.25  -30.94  -20.62  -10.31    0.00   10.31   20.62   30.94   41.25   51.56   61.88   72.19   82.50

   Height   Standard deviation at grid points for the u component:
   182.50    1.724   1.856   1.841   1.754   1.824   1.848   1.926   1.950   1.922   1.892   2.035   1.998   2.015   1.788   1.886   1.794   1.882
   172.19    1.702   1.819   1.853   1.821   1.841   1.859   1.868   1.841   1.799   1.896   2.048   2.139   1.997   1.961   1.842   1.701   1.869
   161.88    1.714   1.816   1.765   1.886   1.912   1.982   2.000   2.023   1.907   1.854   2.041   2.088   1.999   2.013   1.842   1.818   1.719
   151.56    1.684   1.580   1.709   1.775   1.772   1.889   1.947   1.976   1.915   2.053   2.104   2.058   2.063   2.083   1.963   1.940   1.774
   141.25    1.650   1.671   1.687   1.868   1.683   1.839   1.898   1.989   1.951   1.971   1.945   2.048   2.000   1.893   2.114   2.106   2.038
   130.94    1.798   1.818   1.754   1.830   1.758   1.764   1.909   1.936   1.909   2.119   2.044   2.112   1.995   1.982   2.061   2.058   1.899
   120.62    1.881   1.869   1.816   1.756   1.864   1.999   1.955   1.869   1.899   2.023   1.998   2.148   2.088   1.953   2.090   1.963   1.874
   110.31    1.708   1.725   1.677   1.751   1.784   1.841   1.974   1.857   1.671   1.725   1.939   2.024   1.942   1.999   2.040   2.036   2.130
   100.00    1.742   1.640   1.603   1.842   1.775   1.799   1.854   1.632   1.508   1.452   1.685   1.783   1.718   1.861   2.023   2.102   2.186
    89.69    1.632   1.635   1.787   1.893   1.674   1.752   1.680   1.613   1.513   1.633   1.646   1.652   1.654   1.943   2.083   2.189   2.218
    79.38    1.724   1.688   1.842   1.829   1.766   1.651   1.803   1.686   1.637   1.625   1.653   1.672   1.784   1.990   2.127   2.218   2.343
    69.06    1.701   1.679   1.720   1.786   1.805   1.768   1.770   1.881   1.814   1.805   1.796   1.862   1.948   1.988   2.021   2.203   2.152
    58.75    1.861   1.693   1.500   1.680   1.936   1.916   1.801   1.804   1.850   1.749   1.589   1.861   1.996   1.856   1.873   1.995   2.100
    48.44    1.867   1.582   1.436   1.567   1.875   1.929   1.799   1.673   1.799   1.606   1.609   1.702   1.841   1.833   1.833   1.858   1.880
    38.12    1.780   1.660   1.528   1.431   1.644   1.795   1.683   1.800   1.679   1.595   1.574   1.775   1.894   1.824   1.666   1.665   1.665
    27.81    1.790   1.587   1.541   1.575   1.655   1.758   1.761   1.761   1.615   1.551   1.654   1.754   1.807   1.801   1.504   1.422   1.501
    17.50    1.793   1.623   1.699   1.488   1.513   1.671   1.648   1.698   1.609   1.470   1.662   1.738   1.784   1.604   1.499   1.457   1.404

   Height   Standard deviation at grid points for the v component:
   182.50    1.485   1.485   1.485   1.485   1.485   1.485   1.485   1.485   1.485   1.485   1.485   1.485   1.485   1.485   1.485   1.485   1.485
   172.19    1.485   1.485   1.485   1.485   1.485   1.485   1.485   1.485   1.485   1.485   1.485   1.485   1.485   1.485   1.485   1.485   1.485
   161.88    1.485   1.485   1.485   1.485   1.485   1.485   1.485   1.485   1.485   1.485   1.485   1.485   1.485   1.485   1.485   1.485   1.485
   151.56    1.485   1.485   1.485   1.485   1.485   1.485   1.485   1.485   1.485   1.485   1.485   1.485   1.485   1.485   1.485   1.485   1.485
   141.25    1.485   1.485   1.485   1.485   1.485   1.485   1.485   1.485   1.485   1.485   1.485   1.485   1.485   1.485   1.485   1.485   1.485
   130.94    1.485   1.485   1.485   1.485   1.485   1.485   1.485   1.485   1.485   1.485   1.485   1.485   1.485   1.485   1.485   1.485   1.485
   120.62    1.485   1.485   1.485   1.485   1.485   1.485   1.485   1.485   1.485   1.485   1.485   1.485   1.485   1.485   1.485   1.485   1.485
   110.31    1.485   1.485   1.485   1.485   1.485   1.485   1.485   1.485   1.485   1.485   1.485   1.485   1.485   1.485   1.485   1.485   1.485
   100.00    1.485   1.485   1.485   1.485   1.485   1.485   1.485   1.485   1.485   1.485   1.485   1.485   1.485   1.485   1.485   1.485   1.485
    89.69    1.485   1.485   1.485   1.485   1.485   1.485   1.485   1.485   1.485   1.485   1.485   1.485   1.485   1.485   1.485   1.485   1.485
    79.38    1.485   1.485   1.485   1.485   1.485   1.485   1.485   1.485   1.485   1.485   1.485   1.485   1.485   1.485   1.485   1.485   1.485
    69.06    1.485   1.485   1.485   1.485   1.485   1.485   1.485   1.485   1.485   1.485   1.485   1.485   1.485   1.485   1.485   1.485   1.485
    58.75    1.485   1.485   1.485   1.485   1.485   1.485   1.485   1.485   1.485   1.485   1.485   1.485   1.485   1.485   1.485   1.485   1.485
    48.44    1.485   1.485   1.485   1.485   1.485   1.485   1.485   1.485   1.485   1.485   1.485   1.485   1.485   1.485   1.485   1.485   1.485
    38.12    1.485   1.485   1.485   1.485   1.485   1.485   1.485   1.485   1.485   1.485   1.485   1.485   1.485   1.485   1.485   1.485   1.485
    27.81    1.485   1.485   1.485   1.485   1.485   1.485   1.485   1.485   1.485   1.485   1.485   1.485   1.485   1.485   1.485   1.485   1.485
    17.50    1.485   1.485   1.485   1.485   1.485   1.485   1.485   1.485   1.485   1.485   1.485   1.485   1.485   1.485   1.485   1.485   1.485

   Height   Standard deviation at grid points for the w component:
   182.50    0.933   0.933   0.933   0.933   0.933   0.933   0.933   0.933   0.933   0.933   0.933   0.933   0.933   0.933   0.933   0.933   0.933
   172.19    0.933   0.933   0.933   0.933   0.933   0.933   0.933   0.933   0.933   0.933   0.933   0.933   0.933   0.933   0.933   0.933   0.933
   161.88    0.933   0.933   0.933   0.933   0.933   0.933   0.933   0.933   0.933   0.933   0.933   0.933   0.933   0.933   0.933   0.933   0.933
   151.56    0.933   0.933   0.933   0.933   0.933   0.933   0.933   0.933   0.933   0.933   0.933   0.933   0.933   0.933   0.933   0.933   0.933
   141.25    0.933   0.933   0.933   0.933   0.933   0.933   0.933   0.933   0.933   0.933   0.933   0.933   0.933   0.933   0.933   0.933   0.933
   130.94    0.933   0.933   0.933   0.933   0.933   0.933   0.933   0.933   0.933   0.933   0.933   0.933   0.933   0.933   0.933   0.933   0.933
   120.62    0.933   0.933   0.933   0.933   0.933   0.933   0.933   0.933   0.933   0.933   0.933   0.933   0.933   0.933   0.933   0.933   0.933
   110.31    0.933   0.933   0.933   0.933   0.933   0.933   0.933   0.933   0.933   0.933   0.933   0.933   0.933   0.933   0.933   0.933   0.933
   100.00    0.933   0.933   0.933   0.933   0.933   0.933   0.933   0.933   0.933   0.933   0.933   0.933   0.933   0.933   0.933   0.933   0.933
    89.69    0.933   0.933   0.933   0.933   0.933   0.933   0.933   0.933   0.933   0.933   0.933   0.933   0.933   0.933   0.933   0.933   0.933
    79.38    0.933   0.933   0.933   0.933   0.933   0.933   0.933   0.933   0.933   0.933   0.933   0.933   0.933   0.933   0.933   0.933   0.933
    69.06    0.933   0.933   0.933   0.933   0.933   0.933   0.933   0.933   0.933   0.933   0.933   0.933   0.933   0.933   0.933   0.933   0.933
    58.75    0.933   0.933   0.933   0.933   0.933   0.933   0.933   0.933   0.933   0.933   0.933   0.933   0.933   0.933   0.933   0.933   0.933
    48.44    0.933   0.933   0.933   0.933   0.933   0.933   0.933   0.933   0.933   0.933   0.933   0.933   0.933   0.933   0.933   0.933   0.933
    38.12    0.933   0.933   0.933   0.933   0.933   0.933   0.933   0.933   0.933   0.933   0.933   0.933   0.933   0.933   0.933   0.933   0.933
    27.81    0.933   0.933   0.933   0.933   0.933   0.933   0.933   0.933   0.933   0.933   0.933   0.933   0.933   0.933   0.933   0.933   0.933
    17.50    0.933   0.933   0.933   0.933   0.933   0.933   0.933   0.933   0.933   0.933   0.933   0.933   0.933   0.933   0.933   0.933   0.933

   Mean standard deviation across all grid points:
      u component:    1.821 m/s
      v component:    1.485 m/s
      w component:    0.933 m/s


U-component (X) statistics from the hub grid point:

   Mean =   8.4000 m/s
   TI   =  17.9465 %


Normalizing Parameters for Binary Data (approximate statistics):

   UBar  =   8.4000 m/s
   TI(u) =  17.9465 %
   TI(v) =  17.6752 %
   TI(w) =  11.1103 %

   Height Offset =   0.0000 m
   Grid Base     =  17.5000 m

Nyquist frequency of turbulent wind field =        10.000 Hz


Processing complete.  5.3125 CPU seconds used.
