
This summary file was generated by TurbSim (v1.06.00, 21-Sep-2012) on 21-Dec-2025 at 12:45:27.


Runtime Options:

    100000  Random seed #1
    RANLUX  Type of random number generator
         F  Output binary HH turbulence parameters?
         F  Output formatted turbulence parameters?
         F  Output AeroDyn HH files?
         F  Output AeroDyn FF files?
         T  Output BLADED FF files?
         T  Output tower data?
         F  Output formatted FF files?
         F  Output coherent turbulence time step file?
         T  Clockwise rotation when looking downwind?
 0 -  NONE  IEC turbulence models scaled to exact specified standard deviation


Turbine/Model Specifications:

        17  Vertical grid-point matrix dimension
        17  Horizontal grid-point matrix dimension
     0.050  Time step [seconds]
    60.000  Analysis time [seconds]
   660.000  Usable output time [seconds]
   100.000  Hub height [m]
   165.000  Grid height [m]
   165.000  Grid width [m]
     0.000  Vertical flow angle [degrees]
     0.000  Horizontal flow angle [degrees]


Meteorological Boundary Conditions:

    IECKAI  IEC Kaimal spectral model
         1  IEC standard: IEC 61400-1 Ed. 3: 2005
         A  IEC turbulence characteristic
       NTM  IEC Normal Turbulence Model
       N/A  IEC Extreme Turbulence Model (ETM) "c" parameter [m/s]
       IEC  Wind profile type
   100.000  Reference height [m]
    25.000  Reference wind speed [m/s]
       N/A  Jet height [m]
     0.200  Power law exponent
     0.030  Surface roughness length [m]


You have requested that the following file(s) be generated:

   25ms_2A.wnd (AeroDyn/BLADED full-field wnd file)
   25ms_2A.twr (Binary tower twr file)


Turbulence Simulation Scaling Parameter Summary:

   Turbulence model used                            =  IEC Kaimal
   Turbulence characteristic                        =  A
   IEC turbulence type                              =  Normal Turbulence Model
   IEC standard                                     =  IEC 61400-1 Ed. 3: 2005
   Mean wind speed at hub height                    =   25.000 m/s
   Expected value of turbulence intensity at 15 m/s =   16.000%
   Characteristic value of standard deviation       =    3.896 m/s
   Turbulence scale                                 =   42.000 m
   u-component integral scale                       =  340.200 m
   Coherency scale                                  =  340.200 m
   Characteristic value of hub turbulence intensity =   15.584%
   Gradient Richardson number                       =    0.000

   Wind profile type                                =  Power law on rotor disk, logarithmic elsewhere
   Power law exponent                               =    0.200
   Mean shear across rotor disk                     =    0.064 (m/s)/m
   Assumed rotor diameter                           =  165.000 m
   Surface roughness length                         =    0.030 m

   Number of time steps in the FFT                  =    13376
   Number of time steps output                      =    13332


Mean Flow Angles:

   Vertical   =   0.0 degrees
   Horizontal =   0.0 degrees

Mean Wind Speed Profile:

   Height    Wind Speed   Horizontal Angle  U-comp (X)   V-comp (Y)   W-comp (Z)
     (m)        (m/s)         (degrees)       (m/s)        (m/s)        (m/s)   
   ------    ----------   ----------------  ----------   ----------   ----------
    182.5       28.20            0.00         28.20         0.00         0.00
    172.2       27.87            0.00         27.87         0.00         0.00
    161.9       27.53            0.00         27.53         0.00         0.00
    151.6       27.17            0.00         27.17         0.00         0.00
    141.2       26.79            0.00         26.79         0.00         0.00
    130.9       26.38            0.00         26.38         0.00         0.00
    120.6       25.96            0.00         25.96         0.00         0.00
    110.3       25.50            0.00         25.50         0.00         0.00
    100.0       25.00            0.00         25.00         0.00         0.00
     89.7       24.46            0.00         24.46         0.00         0.00
     79.4       23.87            0.00         23.87         0.00         0.00
     69.1       23.22            0.00         23.22         0.00         0.00
     58.8       22.48            0.00         22.48         0.00         0.00
     48.4       21.63            0.00         21.63         0.00         0.00
     38.1       20.61            0.00         20.61         0.00         0.00
     27.8       19.35            0.00         19.35         0.00         0.00
     17.5       17.64            0.00         17.64         0.00         0.00
      7.2       16.89            0.00         16.89         0.00         0.00


Harvested Random Seeds after Generation of the Random Numbers:

     54064120 K1
            0 K2


Hub-Height Simulated Turbulence Statistical Summary:

   Type of Wind        Min (m/s)   Mean (m/s)    Max (m/s)  Sigma (m/s)       TI (%)
   ----------------    ---------   ----------    ---------  -----------       ------
   Longitudinal (u)        11.10        25.00        39.08        4.335       17.338
   Lateral (v)            -10.54         0.00        11.91        3.058       12.233
   Vertical (w)            -7.62         0.00         7.79        1.885        7.540
   U component             11.10        25.00        39.08        4.335       17.338
   V component            -10.54         0.00        11.91        3.058       12.233
   W component             -7.62         0.00         7.79        1.885        7.540
   Horizontal (U&V)        11.14        25.19        39.28        4.300       17.068
   Total                   11.16        25.26        39.43        4.292       16.988

                       Min Reynolds     Mean Reynolds    Max Reynolds    Correlation
   Product             Stress (m/s)^2   Stress (m/s)^2   Stress (m/s)^2  Coefficient
   ----------------    --------------   --------------   --------------  -----------
   u'w'                    -50.862             0.411            46.080         0.050
   u'v'                   -100.895            -2.488            71.265        -0.188
   v'w'                    -41.860             0.085            40.898         0.015


   Friction Velocity (Ustar)  =      0.641 m/s
   Maximum Instantaneous TKE  =    112.836 (m/s)^2
   Maximum Instantaneous CTKE =     51.036 (m/s)^2


Grid Point Variance Summary:

   Y-coord  -82.50  -72.19  -61.88  -51.56  -41.25  -30.94  -20.62  -10.31    0.00   10.31   20.62   30.94   41.25   51.56   61.88   72.19   82.50

   Height   Standard deviation at grid points for the u component:
   182.50    4.223   4.203   4.134   4.031   4.011   3.924   3.740   3.695   3.598   3.428   3.581   3.469   3.577   3.601   3.494   3.619   3.534
   172.19    4.264   4.047   4.000   3.892   3.869   3.823   3.528   3.672   3.670   3.421   3.531   3.525   3.509   3.705   3.646   3.856   3.886
   161.88    4.090   4.061   4.143   3.971   4.006   3.918   3.661   3.763   3.886   3.761   3.519   3.639   3.837   3.986   3.783   4.185   4.042
   151.56    4.008   4.043   4.332   4.069   3.908   3.862   3.625   3.783   3.874   3.687   3.761   3.903   3.857   4.103   4.128   4.305   4.155
   141.25    4.008   4.084   4.125   4.048   3.987   3.739   3.984   4.038   3.947   4.053   4.049   3.919   4.054   4.279   4.229   4.362   4.274
   130.94    3.969   3.974   3.819   3.828   4.016   3.816   4.001   4.137   4.058   4.163   4.179   4.141   4.304   4.369   4.170   4.231   4.368
   120.62    3.738   3.669   3.717   3.887   3.927   3.926   4.000   4.132   4.231   4.289   4.400   4.136   4.468   4.265   4.368   4.263   4.081
   110.31    3.831   3.536   3.597   3.555   3.945   3.958   4.085   4.143   4.237   4.300   4.048   4.260   4.408   4.261   4.248   4.200   4.345
   100.00    3.807   3.661   3.641   3.555   3.811   3.808   4.190   4.335   4.335   4.287   4.239   4.294   4.272   4.302   4.430   4.553   4.446
    89.69    3.717   3.466   3.469   3.703   3.752   3.947   4.065   4.178   4.286   4.437   4.292   4.155   4.301   4.346   4.393   4.356   4.259
    79.38    3.784   3.713   3.491   3.770   3.868   4.016   3.979   4.015   4.230   4.254   4.348   4.278   4.219   4.195   4.065   4.306   4.270
    69.06    3.664   3.713   3.716   3.829   3.658   4.004   3.862   3.801   4.097   4.264   4.349   4.493   4.297   4.305   4.169   4.273   4.128
    58.75    3.809   3.577   3.769   3.832   3.792   3.893   3.859   3.992   4.007   4.171   4.282   4.107   4.000   4.119   4.031   4.365   4.214
    48.44    3.791   3.721   3.851   3.793   3.943   3.881   4.180   4.003   4.159   4.325   4.112   4.062   3.890   4.039   3.977   4.149   4.215
    38.12    3.796   3.793   4.032   3.905   3.935   4.078   3.985   4.258   4.187   4.280   4.297   4.273   4.196   4.102   4.170   4.154   4.093
    27.81    3.831   3.862   3.793   3.883   3.726   4.043   4.151   4.168   4.085   4.074   4.282   4.166   4.298   4.269   4.128   4.106   4.252
    17.50    3.796   3.833   4.024   4.003   4.026   3.982   4.015   3.832   3.870   4.034   4.318   4.284   4.095   4.246   4.200   4.120   4.179

   Height   Standard deviation at grid points for the v component:
   182.50    3.058   3.058   3.058   3.058   3.058   3.058   3.058   3.058   3.058   3.058   3.058   3.058   3.058   3.058   3.058   3.058   3.058
   172.19    3.058   3.058   3.058   3.058   3.058   3.058   3.058   3.058   3.058   3.058   3.058   3.058   3.058   3.058   3.058   3.058   3.058
   161.88    3.058   3.058   3.058   3.058   3.058   3.058   3.058   3.058   3.058   3.058   3.058   3.058   3.058   3.058   3.058   3.058   3.058
   151.56    3.058   3.058   3.058   3.058   3.058   3.058   3.058   3.058   3.058   3.058   3.058   3.058   3.058   3.058   3.058   3.058   3.058
   141.25    3.058   3.058   3.058   3.058   3.058   3.058   3.058   3.058   3.058   3.058   3.058   3.058   3.058   3.058   3.058   3.058   3.058
   130.94    3.058   3.058   3.058   3.058   3.058   3.058   3.058   3.058   3.058   3.058   3.058   3.058   3.058   3.058   3.058   3.058   3.058
   120.62    3.058   3.058   3.058   3.058   3.058   3.058   3.058   3.058   3.058   3.058   3.058   3.058   3.058   3.058   3.058   3.058   3.058
   110.31    3.058   3.058   3.058   3.058   3.058   3.058   3.058   3.058   3.058   3.058   3.058   3.058   3.058   3.058   3.058   3.058   3.058
   100.00    3.058   3.058   3.058   3.058   3.058   3.058   3.058   3.058   3.058   3.058   3.058   3.058   3.058   3.058   3.058   3.058   3.058
    89.69    3.058   3.058   3.058   3.058   3.058   3.058   3.058   3.058   3.058   3.058   3.058   3.058   3.058   3.058   3.058   3.058   3.058
    79.38    3.058   3.058   3.058   3.058   3.058   3.058   3.058   3.058   3.058   3.058   3.058   3.058   3.058   3.058   3.058   3.058   3.058
    69.06    3.058   3.058   3.058   3.058   3.058   3.058   3.058   3.058   3.058   3.058   3.058   3.058   3.058   3.058   3.058   3.058   3.058
    58.75    3.058   3.058   3.058   3.058   3.058   3.058   3.058   3.058   3.058   3.058   3.058   3.058   3.058   3.058   3.058   3.058   3.058
    48.44    3.058   3.058   3.058   3.058   3.058   3.058   3.058   3.058   3.058   3.058   3.058   3.058   3.058   3.058   3.058   3.058   3.058
    38.12    3.058   3.058   3.058   3.058   3.058   3.058   3.058   3.058   3.058   3.058   3.058   3.058   3.058   3.058   3.058   3.058   3.058
    27.81    3.058   3.058   3.058   3.058   3.058   3.058   3.058   3.058   3.058   3.058   3.058   3.058   3.058   3.058   3.058   3.058   3.058
    17.50    3.058   3.058   3.058   3.058   3.058   3.058   3.058   3.058   3.058   3.058   3.058   3.058   3.058   3.058   3.058   3.058   3.058

   Height   Standard deviation at grid points for the w component:
   182.50    1.885   1.885   1.885   1.885   1.885   1.885   1.885   1.885   1.885   1.885   1.885   1.885   1.885   1.885   1.885   1.885   1.885
   172.19    1.885   1.885   1.885   1.885   1.885   1.885   1.885   1.885   1.885   1.885   1.885   1.885   1.885   1.885   1.885   1.885   1.885
   161.88    1.885   1.885   1.885   1.885   1.885   1.885   1.885   1.885   1.885   1.885   1.885   1.885   1.885   1.885   1.885   1.885   1.885
   151.56    1.885   1.885   1.885   1.885   1.885   1.885   1.885   1.885   1.885   1.885   1.885   1.885   1.885   1.885   1.885   1.885   1.885
   141.25    1.885   1.885   1.885   1.885   1.885   1.885   1.885   1.885   1.885   1.885   1.885   1.885   1.885   1.885   1.885   1.885   1.885
   130.94    1.885   1.885   1.885   1.885   1.885   1.885   1.885   1.885   1.885   1.885   1.885   1.885   1.885   1.885   1.885   1.885   1.885
   120.62    1.885   1.885   1.885   1.885   1.885   1.885   1.885   1.885   1.885   1.885   1.885   1.885   1.885   1.885   1.885   1.885   1.885
   110.31    1.885   1.885   1.885   1.885   1.885   1.885   1.885   1.885   1.885   1.885   1.885   1.885   1.885   1.885   1.885   1.885   1.885
   100.00    1.885   1.885   1.885   1.885   1.885   1.885   1.885   1.885   1.885   1.885   1.885   1.885   1.885   1.885   1.885   1.885   1.885
    89.69    1.885   1.885   1.885   1.885   1.885   1.885   1.885   1.885   1.885   1.885   1.885   1.885   1.885   1.885   1.885   1.885   1.885
    79.38    1.885   1.885   1.885   1.885   1.885   1.885   1.885   1.885   1.885   1.885   1.885   1.885   1.885   1.885   1.885   1.885   1.885
    69.06    1.885   1.885   1.885   1.885   1.885   1.885   1.885   1.885   1.885   1.885   1.885   1.885   1.885   1.885   1.885   1.885   1.885
    58.75    1.885   1.885   1.885   1.885   1.885   1.885   1.885   1.885   1.885   1.885   1.885   1.885   1.885   1.885   1.885   1.885   1.885
    48.44    1.885   1.885   1.885   1.885   1.885   1.885   1.885   1.885   1.885   1.885   1.885   1.885   1.885   1.885   1.885   1.885   1.885
    38.12    1.885   1.885   1.885   1.885   1.885   1.885   1.885   1.885   1.885   1.885   1.885   1.885   1.885   1.885   1.885   1.885   1.885
    27.81    1.885   1.885   1.885   1.885   1.885   1.885   1.885   1.885   1.885   1.885   1.885   1.885   1.885   1.885   1.885   1.885   1.885
    17.50    1.885   1.885   1.885   1.885   1.885   1.885   1.885   1.885   1.885   1.885   1.885   1.885   1.885   1.885   1.885   1.885   1.885

   Mean standard deviation across all grid points:
      u component:    4.009 m/s
      v component:    3.058 m/s
      w component:    1.885 m/s


U-component (X) statistics from the hub grid point:

   Mean =  25.0000 m/s
   TI   =  17.3384 %


Normalizing Parameters for Binary Data (approximate statistics):

   UBar  =  25.0000 m/s
   TI(u) =  17.3384 %
   TI(v) =  12.2333 %
   TI(w) =   7.5401 %

   Height Offset =   0.0000 m
   Grid Base     =  17.5000 m

Nyquist frequency of turbulent wind field =        10.000 Hz


Processing complete.  6.1562 CPU seconds used.
