
This summary file was generated by TurbSim (v1.06.00, 21-Sep-2012) on 21-Dec-2025 at 12:51:32.


Runtime Options:

    300000  Random seed #1
    RANLUX  Type of random number generator
         F  Output binary HH turbulence parameters?
         F  Output formatted turbulence parameters?
         F  Output AeroDyn HH files?
         F  Output AeroDyn FF files?
         T  Output BLADED FF files?
         T  Output tower data?
         F  Output formatted FF files?
         F  Output coherent turbulence time step file?
         T  Clockwise rotation when looking downwind?
 0 -  NONE  IEC turbulence models scaled to exact specified standard deviation


Turbine/Model Specifications:

        17  Vertical grid-point matrix dimension
        17  Horizontal grid-point matrix dimension
     0.050  Time step [seconds]
    60.000  Analysis time [seconds]
   660.000  Usable output time [seconds]
   100.000  Hub height [m]
   165.000  Grid height [m]
   165.000  Grid width [m]
     0.000  Vertical flow angle [degrees]
     0.000  Horizontal flow angle [degrees]


Meteorological Boundary Conditions:

    IECKAI  IEC Kaimal spectral model
         1  IEC standard: IEC 61400-1 Ed. 3: 2005
         A  IEC turbulence characteristic
    2EWM50  IEC Extreme 50-Year Wind Speed Model
       N/A  IEC Extreme Turbulence Model (ETM) "c" parameter [m/s]
       IEC  Wind profile type
   100.000  Reference height [m]
       N/A  Reference wind speed [m/s]
       N/A  Jet height [m]
       N/A  Power law exponent
     0.030  Surface roughness length [m]


You have requested that the following file(s) be generated:

   42.5ms_2A.wnd (AeroDyn/BLADED full-field wnd file)
   42.5ms_2A.twr (Binary tower twr file)


Turbulence Simulation Scaling Parameter Summary:

   Turbulence model used                            =  IEC Kaimal
   Turbulence characteristic                        =  2A
   IEC turbulence type                              =  Extreme 50-Year Wind Speed Model
   Reference wind speed average over 10 minutes     =   42.500 m/s
   Annual wind speed average at hub height          =    8.500 m/s
   IEC standard                                     =  IEC 61400-1 Ed. 3: 2005
   Mean wind speed at hub height                    =   42.500 m/s
   Expected value of turbulence intensity at 15 m/s =   16.000%
   Characteristic value of standard deviation       =    4.675 m/s
   Turbulence scale                                 =   42.000 m
   u-component integral scale                       =  340.200 m
   Coherency scale                                  =  340.200 m
   Characteristic value of hub turbulence intensity =   11.000%
   Gradient Richardson number                       =    0.000

   Wind profile type                                =  Power law on rotor disk, logarithmic elsewhere
   Power law exponent                               =    0.110
   Mean shear across rotor disk                     =    0.063 (m/s)/m
   Assumed rotor diameter                           =  165.000 m
   Surface roughness length                         =    0.030 m

   Number of time steps in the FFT                  =    13300
   Number of time steps output                      =    13278


Mean Flow Angles:

   Vertical   =   0.0 degrees
   Horizontal =   0.0 degrees

Mean Wind Speed Profile:

   Height    Wind Speed   Horizontal Angle  U-comp (X)   V-comp (Y)   W-comp (Z)
     (m)        (m/s)         (degrees)       (m/s)        (m/s)        (m/s)   
   ------    ----------   ----------------  ----------   ----------   ----------
    182.5       45.41            0.00         45.41         0.00         0.00
    172.2       45.12            0.00         45.12         0.00         0.00
    161.9       44.81            0.00         44.81         0.00         0.00
    151.6       44.49            0.00         44.49         0.00         0.00
    141.2       44.15            0.00         44.15         0.00         0.00
    130.9       43.78            0.00         43.78         0.00         0.00
    120.6       43.39            0.00         43.39         0.00         0.00
    110.3       42.96            0.00         42.96         0.00         0.00
    100.0       42.50            0.00         42.50         0.00         0.00
     89.7       41.99            0.00         41.99         0.00         0.00
     79.4       41.43            0.00         41.43         0.00         0.00
     69.1       40.80            0.00         40.80         0.00         0.00
     58.8       40.08            0.00         40.08         0.00         0.00
     48.4       39.24            0.00         39.24         0.00         0.00
     38.1       38.22            0.00         38.22         0.00         0.00
     27.8       36.92            0.00         36.92         0.00         0.00
     17.5       35.09            0.00         35.09         0.00         0.00
      7.2       31.81            0.00         31.81         0.00         0.00


Harvested Random Seeds after Generation of the Random Numbers:

     53756838 K1
            0 K2


Hub-Height Simulated Turbulence Statistical Summary:

   Type of Wind        Min (m/s)   Mean (m/s)    Max (m/s)  Sigma (m/s)       TI (%)
   ----------------    ---------   ----------    ---------  -----------       ------
   Longitudinal (u)        24.78        42.50        57.48        4.790       11.271
   Lateral (v)            -13.27         0.00        13.02        3.661        8.614
   Vertical (w)            -8.95         0.00         8.95        2.233        5.255
   U component             24.78        42.50        57.48        4.790       11.271
   V component            -13.27         0.00        13.02        3.661        8.614
   W component             -8.95         0.00         8.95        2.233        5.255
   Horizontal (U&V)        24.99        42.66        57.53        4.777       11.198
   Total                   25.21        42.72        57.53        4.770       11.166

                       Min Reynolds     Mean Reynolds    Max Reynolds    Correlation
   Product             Stress (m/s)^2   Stress (m/s)^2   Stress (m/s)^2  Coefficient
   ----------------    --------------   --------------   --------------  -----------
   u'w'                    -68.619            -0.065            89.228        -0.006
   u'v'                   -151.293            -0.974            97.815        -0.056
   v'w'                    -52.951             0.633            82.497         0.077


   Friction Velocity (Ustar)  =      0.255 m/s
   Maximum Instantaneous TKE  =    169.053 (m/s)^2
   Maximum Instantaneous CTKE =     75.776 (m/s)^2


Grid Point Variance Summary:

   Y-coord  -82.50  -72.19  -61.88  -51.56  -41.25  -30.94  -20.62  -10.31    0.00   10.31   20.62   30.94   41.25   51.56   61.88   72.19   82.50

   Height   Standard deviation at grid points for the u component:
   182.50    4.373   4.484   4.482   4.478   4.372   4.416   4.401   4.269   4.277   4.437   4.341   4.168   4.493   4.726   4.349   4.290   4.328
   172.19    4.574   4.568   4.456   4.411   4.459   4.364   4.244   4.177   4.403   4.391   4.270   4.450   4.470   4.625   4.550   4.493   4.471
   161.88    4.273   4.320   4.524   4.425   4.371   4.188   4.261   4.285   4.460   4.639   4.317   4.498   4.555   4.498   4.480   4.360   4.516
   151.56    4.298   4.304   4.318   4.579   4.322   4.427   4.485   4.270   4.517   4.550   4.717   4.624   4.608   4.363   4.395   4.371   4.473
   141.25    4.304   4.377   4.494   4.847   4.592   4.648   4.446   4.509   4.702   4.861   4.874   4.617   4.607   4.416   4.232   4.423   4.558
   130.94    4.379   4.528   4.649   4.729   4.768   4.678   4.774   4.715   4.789   4.928   4.784   4.602   4.659   4.571   4.259   4.575   4.497
   120.62    4.634   4.804   4.968   4.872   4.809   4.811   4.835   4.932   4.840   4.780   4.640   4.592   4.689   4.751   4.590   4.530   4.596
   110.31    4.746   4.730   4.764   4.822   4.684   4.756   4.792   5.047   4.894   4.836   4.657   4.685   4.862   4.623   4.440   4.526   4.641
   100.00    4.657   4.831   4.714   4.838   4.946   4.920   4.866   4.863   4.790   4.631   4.479   4.816   4.685   4.709   4.649   4.762   4.588
    89.69    4.770   4.798   4.829   4.889   5.054   4.960   4.806   4.683   4.763   4.880   4.723   4.596   4.666   4.573   4.703   4.731   4.585
    79.38    4.648   4.736   4.617   4.822   4.852   4.861   4.804   4.851   4.894   4.964   4.738   4.689   4.726   4.642   4.651   4.593   4.564
    69.06    4.872   4.700   4.900   4.828   4.909   5.216   4.853   4.984   5.053   4.952   4.878   4.682   4.532   4.460   4.555   4.723   4.671
    58.75    4.695   4.675   4.735   4.767   4.802   4.884   4.887   5.075   4.882   4.732   4.868   4.627   4.569   4.581   4.561   4.845   4.888
    48.44    4.752   4.733   4.673   4.711   4.608   4.748   4.828   5.016   4.753   4.795   4.637   4.436   4.742   4.715   4.778   4.777   4.653
    38.12    4.731   4.813   4.559   4.587   4.591   4.599   4.852   4.850   4.782   4.760   4.620   4.442   4.693   4.870   4.864   4.762   4.772
    27.81    4.669   4.628   4.569   4.430   4.387   4.620   4.622   4.838   4.750   4.759   4.644   4.685   4.693   4.792   5.012   4.834   4.707
    17.50    4.581   4.572   4.588   4.589   4.523   4.569   4.527   4.783   4.792   4.952   4.951   4.751   4.655   4.654   4.876   4.704   4.767

   Height   Standard deviation at grid points for the v component:
   182.50    3.661   3.661   3.661   3.661   3.661   3.661   3.661   3.661   3.661   3.661   3.661   3.661   3.661   3.661   3.661   3.661   3.661
   172.19    3.661   3.661   3.661   3.661   3.661   3.661   3.661   3.661   3.661   3.661   3.661   3.661   3.661   3.661   3.661   3.661   3.661
   161.88    3.661   3.661   3.661   3.661   3.661   3.661   3.661   3.661   3.661   3.661   3.661   3.661   3.661   3.661   3.661   3.661   3.661
   151.56    3.661   3.661   3.661   3.661   3.661   3.661   3.661   3.661   3.661   3.661   3.661   3.661   3.661   3.661   3.661   3.661   3.661
   141.25    3.661   3.661   3.661   3.661   3.661   3.661   3.661   3.661   3.661   3.661   3.661   3.661   3.661   3.661   3.661   3.661   3.661
   130.94    3.661   3.661   3.661   3.661   3.661   3.661   3.661   3.661   3.661   3.661   3.661   3.661   3.661   3.661   3.661   3.661   3.661
   120.62    3.661   3.661   3.661   3.661   3.661   3.661   3.661   3.661   3.661   3.661   3.661   3.661   3.661   3.661   3.661   3.661   3.661
   110.31    3.661   3.661   3.661   3.661   3.661   3.661   3.661   3.661   3.661   3.661   3.661   3.661   3.661   3.661   3.661   3.661   3.661
   100.00    3.661   3.661   3.661   3.661   3.661   3.661   3.661   3.661   3.661   3.661   3.661   3.661   3.661   3.661   3.661   3.661   3.661
    89.69    3.661   3.661   3.661   3.661   3.661   3.661   3.661   3.661   3.661   3.661   3.661   3.661   3.661   3.661   3.661   3.661   3.661
    79.38    3.661   3.661   3.661   3.661   3.661   3.661   3.661   3.661   3.661   3.661   3.661   3.661   3.661   3.661   3.661   3.661   3.661
    69.06    3.661   3.661   3.661   3.661   3.661   3.661   3.661   3.661   3.661   3.661   3.661   3.661   3.661   3.661   3.661   3.661   3.661
    58.75    3.661   3.661   3.661   3.661   3.661   3.661   3.661   3.661   3.661   3.661   3.661   3.661   3.661   3.661   3.661   3.661   3.661
    48.44    3.661   3.661   3.661   3.661   3.661   3.661   3.661   3.661   3.661   3.661   3.661   3.661   3.661   3.661   3.661   3.661   3.661
    38.12    3.661   3.661   3.661   3.661   3.661   3.661   3.661   3.661   3.661   3.661   3.661   3.661   3.661   3.661   3.661   3.661   3.661
    27.81    3.661   3.661   3.661   3.661   3.661   3.661   3.661   3.661   3.661   3.661   3.661   3.661   3.661   3.661   3.661   3.661   3.661
    17.50    3.661   3.661   3.661   3.661   3.661   3.661   3.661   3.661   3.661   3.661   3.661   3.661   3.661   3.661   3.661   3.661   3.661

   Height   Standard deviation at grid points for the w component:
   182.50    2.233   2.233   2.233   2.233   2.233   2.233   2.233   2.233   2.233   2.233   2.233   2.233   2.233   2.233   2.233   2.233   2.233
   172.19    2.233   2.233   2.233   2.233   2.233   2.233   2.233   2.233   2.233   2.233   2.233   2.233   2.233   2.233   2.233   2.233   2.233
   161.88    2.233   2.233   2.233   2.233   2.233   2.233   2.233   2.233   2.233   2.233   2.233   2.233   2.233   2.233   2.233   2.233   2.233
   151.56    2.233   2.233   2.233   2.233   2.233   2.233   2.233   2.233   2.233   2.233   2.233   2.233   2.233   2.233   2.233   2.233   2.233
   141.25    2.233   2.233   2.233   2.233   2.233   2.233   2.233   2.233   2.233   2.233   2.233   2.233   2.233   2.233   2.233   2.233   2.233
   130.94    2.233   2.233   2.233   2.233   2.233   2.233   2.233   2.233   2.233   2.233   2.233   2.233   2.233   2.233   2.233   2.233   2.233
   120.62    2.233   2.233   2.233   2.233   2.233   2.233   2.233   2.233   2.233   2.233   2.233   2.233   2.233   2.233   2.233   2.233   2.233
   110.31    2.233   2.233   2.233   2.233   2.233   2.233   2.233   2.233   2.233   2.233   2.233   2.233   2.233   2.233   2.233   2.233   2.233
   100.00    2.233   2.233   2.233   2.233   2.233   2.233   2.233   2.233   2.233   2.233   2.233   2.233   2.233   2.233   2.233   2.233   2.233
    89.69    2.233   2.233   2.233   2.233   2.233   2.233   2.233   2.233   2.233   2.233   2.233   2.233   2.233   2.233   2.233   2.233   2.233
    79.38    2.233   2.233   2.233   2.233   2.233   2.233   2.233   2.233   2.233   2.233   2.233   2.233   2.233   2.233   2.233   2.233   2.233
    69.06    2.233   2.233   2.233   2.233   2.233   2.233   2.233   2.233   2.233   2.233   2.233   2.233   2.233   2.233   2.233   2.233   2.233
    58.75    2.233   2.233   2.233   2.233   2.233   2.233   2.233   2.233   2.233   2.233   2.233   2.233   2.233   2.233   2.233   2.233   2.233
    48.44    2.233   2.233   2.233   2.233   2.233   2.233   2.233   2.233   2.233   2.233   2.233   2.233   2.233   2.233   2.233   2.233   2.233
    38.12    2.233   2.233   2.233   2.233   2.233   2.233   2.233   2.233   2.233   2.233   2.233   2.233   2.233   2.233   2.233   2.233   2.233
    27.81    2.233   2.233   2.233   2.233   2.233   2.233   2.233   2.233   2.233   2.233   2.233   2.233   2.233   2.233   2.233   2.233   2.233
    17.50    2.233   2.233   2.233   2.233   2.233   2.233   2.233   2.233   2.233   2.233   2.233   2.233   2.233   2.233   2.233   2.233   2.233

   Mean standard deviation across all grid points:
      u component:    4.649 m/s
      v component:    3.661 m/s
      w component:    2.233 m/s


U-component (X) statistics from the hub grid point:

   Mean =  42.5000 m/s
   TI   =  11.2706 %


Normalizing Parameters for Binary Data (approximate statistics):

   UBar  =  42.5000 m/s
   TI(u) =  11.2706 %
   TI(v) =   8.6143 %
   TI(w) =   5.2545 %

   Height Offset =   0.0000 m
   Grid Base     =  17.5000 m

Nyquist frequency of turbulent wind field =        10.000 Hz


Processing complete.  6.625 CPU seconds used.
