
This summary file was generated by TurbSim (v1.06.00, 21-Sep-2012) on 19-Jan-2026 at 00:33:41.


Runtime Options:

       400  Random seed #1
    RANLUX  Type of random number generator
         F  Output binary HH turbulence parameters?
         F  Output formatted turbulence parameters?
         F  Output AeroDyn HH files?
         F  Output AeroDyn FF files?
         T  Output BLADED FF files?
         T  Output tower data?
         F  Output formatted FF files?
         F  Output coherent turbulence time step file?
         T  Clockwise rotation when looking downwind?
 0 -  NONE  IEC turbulence models scaled to exact specified standard deviation


Turbine/Model Specifications:

        17  Vertical grid-point matrix dimension
        17  Horizontal grid-point matrix dimension
     0.050  Time step [seconds]
    60.000  Analysis time [seconds]
   660.000  Usable output time [seconds]
   100.000  Hub height [m]
   165.000  Grid height [m]
   165.000  Grid width [m]
     0.000  Vertical flow angle [degrees]
     0.000  Horizontal flow angle [degrees]


Meteorological Boundary Conditions:

    IECKAI  IEC Kaimal spectral model
         1  IEC standard: IEC 61400-1 Ed. 3: 2005
         A  IEC turbulence characteristic
    2EWM50  IEC Extreme 50-Year Wind Speed Model
       N/A  IEC Extreme Turbulence Model (ETM) "c" parameter [m/s]
       IEC  Wind profile type
   100.000  Reference height [m]
       N/A  Reference wind speed [m/s]
       N/A  Jet height [m]
       N/A  Power law exponent
     0.030  Surface roughness length [m]


You have requested that the following file(s) be generated:

   42.5ms_2A.wnd (AeroDyn/BLADED full-field wnd file)
   42.5ms_2A.twr (Binary tower twr file)


Turbulence Simulation Scaling Parameter Summary:

   Turbulence model used                            =  IEC Kaimal
   Turbulence characteristic                        =  2A
   IEC turbulence type                              =  Extreme 50-Year Wind Speed Model
   Reference wind speed average over 10 minutes     =   42.500 m/s
   Annual wind speed average at hub height          =    8.500 m/s
   IEC standard                                     =  IEC 61400-1 Ed. 3: 2005
   Mean wind speed at hub height                    =   42.500 m/s
   Expected value of turbulence intensity at 15 m/s =   16.000%
   Characteristic value of standard deviation       =    4.675 m/s
   Turbulence scale                                 =   42.000 m
   u-component integral scale                       =  340.200 m
   Coherency scale                                  =  340.200 m
   Characteristic value of hub turbulence intensity =   11.000%
   Gradient Richardson number                       =    0.000

   Wind profile type                                =  Power law on rotor disk, logarithmic elsewhere
   Power law exponent                               =    0.110
   Mean shear across rotor disk                     =    0.063 (m/s)/m
   Assumed rotor diameter                           =  165.000 m
   Surface roughness length                         =    0.030 m

   Number of time steps in the FFT                  =    13300
   Number of time steps output                      =    13278


Mean Flow Angles:

   Vertical   =   0.0 degrees
   Horizontal =   0.0 degrees

Mean Wind Speed Profile:

   Height    Wind Speed   Horizontal Angle  U-comp (X)   V-comp (Y)   W-comp (Z)
     (m)        (m/s)         (degrees)       (m/s)        (m/s)        (m/s)   
   ------    ----------   ----------------  ----------   ----------   ----------
    182.5       45.41            0.00         45.41         0.00         0.00
    172.2       45.12            0.00         45.12         0.00         0.00
    161.9       44.81            0.00         44.81         0.00         0.00
    151.6       44.49            0.00         44.49         0.00         0.00
    141.2       44.15            0.00         44.15         0.00         0.00
    130.9       43.78            0.00         43.78         0.00         0.00
    120.6       43.39            0.00         43.39         0.00         0.00
    110.3       42.96            0.00         42.96         0.00         0.00
    100.0       42.50            0.00         42.50         0.00         0.00
     89.7       41.99            0.00         41.99         0.00         0.00
     79.4       41.43            0.00         41.43         0.00         0.00
     69.1       40.80            0.00         40.80         0.00         0.00
     58.8       40.08            0.00         40.08         0.00         0.00
     48.4       39.24            0.00         39.24         0.00         0.00
     38.1       38.22            0.00         38.22         0.00         0.00
     27.8       36.92            0.00         36.92         0.00         0.00
     17.5       35.09            0.00         35.09         0.00         0.00
      7.2       31.81            0.00         31.81         0.00         0.00


Harvested Random Seeds after Generation of the Random Numbers:

     53756838 K1
            0 K2


Hub-Height Simulated Turbulence Statistical Summary:

   Type of Wind        Min (m/s)   Mean (m/s)    Max (m/s)  Sigma (m/s)       TI (%)
   ----------------    ---------   ----------    ---------  -----------       ------
   Longitudinal (u)        24.53        42.50        57.55        4.604       10.834
   Lateral (v)            -12.77         0.00        12.84        3.661        8.614
   Vertical (w)            -7.97         0.00         7.84        2.233        5.255
   U component             24.53        42.50        57.55        4.604       10.834
   V component            -12.77         0.00        12.84        3.661        8.614
   W component             -7.97         0.00         7.84        2.233        5.255
   Horizontal (U&V)        24.53        42.66        57.83        4.585       10.747
   Total                   24.53        42.72        57.97        4.580       10.721

                       Min Reynolds     Mean Reynolds    Max Reynolds    Correlation
   Product             Stress (m/s)^2   Stress (m/s)^2   Stress (m/s)^2  Coefficient
   ----------------    --------------   --------------   --------------  -----------
   u'w'                    -71.132             0.121            63.650         0.012
   u'v'                   -148.985            -1.414            97.143        -0.084
   v'w'                    -56.425             0.483            81.131         0.059


   Friction Velocity (Ustar)  =      0.347 m/s
   Maximum Instantaneous TKE  =    161.490 (m/s)^2
   Maximum Instantaneous CTKE =     76.060 (m/s)^2


Grid Point Variance Summary:

   Y-coord  -82.50  -72.19  -61.88  -51.56  -41.25  -30.94  -20.62  -10.31    0.00   10.31   20.62   30.94   41.25   51.56   61.88   72.19   82.50

   Height   Standard deviation at grid points for the u component:
   182.50    4.434   4.490   4.567   4.612   4.929   4.957   5.061   4.989   4.849   4.677   4.635   4.415   4.406   4.432   4.361   4.208   4.339
   172.19    4.394   4.294   4.454   4.473   4.538   4.730   4.800   4.897   4.713   4.615   4.597   4.474   4.534   4.379   4.358   4.147   4.451
   161.88    4.291   4.355   4.185   4.380   4.406   4.681   4.790   4.697   4.702   4.618   4.333   4.341   4.357   4.270   4.087   4.232   4.405
   151.56    4.112   4.117   3.975   4.171   4.394   4.556   4.661   4.552   4.646   4.623   4.460   4.468   4.457   4.256   4.115   4.236   4.147
   141.25    4.103   3.955   4.103   4.212   4.408   4.513   4.613   4.707   4.520   4.486   4.332   4.300   4.350   4.167   4.196   4.186   4.107
   130.94    4.055   4.183   4.187   4.345   4.616   4.553   4.605   4.484   4.374   4.479   4.529   4.490   4.406   4.342   4.242   4.184   4.054
   120.62    3.884   4.057   4.257   4.319   4.501   4.457   4.505   4.611   4.590   4.773   4.502   4.302   4.523   4.322   4.391   4.342   4.146
   110.31    3.812   4.058   4.089   4.357   4.570   4.593   4.502   4.568   4.738   4.627   4.585   4.540   4.430   4.274   4.517   4.444   4.308
   100.00    4.153   4.170   4.249   4.343   4.465   4.604   4.421   4.708   4.604   4.749   4.695   4.697   4.493   4.472   4.567   4.530   4.299
    89.69    4.102   4.192   4.211   4.319   4.544   4.528   4.601   4.401   4.626   4.680   4.648   4.399   4.361   4.425   4.414   4.581   4.507
    79.38    4.244   4.264   4.410   4.531   4.607   4.519   4.556   4.636   4.847   4.640   4.497   4.402   4.296   4.481   4.368   4.458   4.638
    69.06    4.080   4.329   4.621   4.558   4.460   4.418   4.360   4.460   4.541   4.722   4.696   4.246   4.356   4.468   4.386   4.442   4.553
    58.75    4.248   4.394   4.593   4.555   4.379   4.457   4.635   4.591   4.627   4.731   4.675   4.412   4.349   4.327   4.354   4.347   4.384
    48.44    4.356   4.558   4.773   4.586   4.412   4.495   4.809   4.810   4.801   4.811   4.779   4.482   4.514   4.462   4.408   4.351   4.330
    38.12    4.505   4.868   4.784   4.878   4.631   4.815   4.852   4.898   4.816   4.777   4.791   4.620   4.645   4.475   4.468   4.396   4.426
    27.81    4.485   4.641   4.946   4.786   4.695   4.904   4.781   4.808   4.859   4.855   4.846   4.660   4.724   4.698   4.541   4.372   4.356
    17.50    4.581   4.624   4.746   4.433   4.645   4.792   4.944   4.722   5.008   4.853   4.955   4.890   4.755   4.554   4.720   4.698   4.496

   Height   Standard deviation at grid points for the v component:
   182.50    3.661   3.661   3.661   3.661   3.661   3.661   3.661   3.661   3.661   3.661   3.661   3.661   3.661   3.661   3.661   3.661   3.661
   172.19    3.661   3.661   3.661   3.661   3.661   3.661   3.661   3.661   3.661   3.661   3.661   3.661   3.661   3.661   3.661   3.661   3.661
   161.88    3.661   3.661   3.661   3.661   3.661   3.661   3.661   3.661   3.661   3.661   3.661   3.661   3.661   3.661   3.661   3.661   3.661
   151.56    3.661   3.661   3.661   3.661   3.661   3.661   3.661   3.661   3.661   3.661   3.661   3.661   3.661   3.661   3.661   3.661   3.661
   141.25    3.661   3.661   3.661   3.661   3.661   3.661   3.661   3.661   3.661   3.661   3.661   3.661   3.661   3.661   3.661   3.661   3.661
   130.94    3.661   3.661   3.661   3.661   3.661   3.661   3.661   3.661   3.661   3.661   3.661   3.661   3.661   3.661   3.661   3.661   3.661
   120.62    3.661   3.661   3.661   3.661   3.661   3.661   3.661   3.661   3.661   3.661   3.661   3.661   3.661   3.661   3.661   3.661   3.661
   110.31    3.661   3.661   3.661   3.661   3.661   3.661   3.661   3.661   3.661   3.661   3.661   3.661   3.661   3.661   3.661   3.661   3.661
   100.00    3.661   3.661   3.661   3.661   3.661   3.661   3.661   3.661   3.661   3.661   3.661   3.661   3.661   3.661   3.661   3.661   3.661
    89.69    3.661   3.661   3.661   3.661   3.661   3.661   3.661   3.661   3.661   3.661   3.661   3.661   3.661   3.661   3.661   3.661   3.661
    79.38    3.661   3.661   3.661   3.661   3.661   3.661   3.661   3.661   3.661   3.661   3.661   3.661   3.661   3.661   3.661   3.661   3.661
    69.06    3.661   3.661   3.661   3.661   3.661   3.661   3.661   3.661   3.661   3.661   3.661   3.661   3.661   3.661   3.661   3.661   3.661
    58.75    3.661   3.661   3.661   3.661   3.661   3.661   3.661   3.661   3.661   3.661   3.661   3.661   3.661   3.661   3.661   3.661   3.661
    48.44    3.661   3.661   3.661   3.661   3.661   3.661   3.661   3.661   3.661   3.661   3.661   3.661   3.661   3.661   3.661   3.661   3.661
    38.12    3.661   3.661   3.661   3.661   3.661   3.661   3.661   3.661   3.661   3.661   3.661   3.661   3.661   3.661   3.661   3.661   3.661
    27.81    3.661   3.661   3.661   3.661   3.661   3.661   3.661   3.661   3.661   3.661   3.661   3.661   3.661   3.661   3.661   3.661   3.661
    17.50    3.661   3.661   3.661   3.661   3.661   3.661   3.661   3.661   3.661   3.661   3.661   3.661   3.661   3.661   3.661   3.661   3.661

   Height   Standard deviation at grid points for the w component:
   182.50    2.233   2.233   2.233   2.233   2.233   2.233   2.233   2.233   2.233   2.233   2.233   2.233   2.233   2.233   2.233   2.233   2.233
   172.19    2.233   2.233   2.233   2.233   2.233   2.233   2.233   2.233   2.233   2.233   2.233   2.233   2.233   2.233   2.233   2.233   2.233
   161.88    2.233   2.233   2.233   2.233   2.233   2.233   2.233   2.233   2.233   2.233   2.233   2.233   2.233   2.233   2.233   2.233   2.233
   151.56    2.233   2.233   2.233   2.233   2.233   2.233   2.233   2.233   2.233   2.233   2.233   2.233   2.233   2.233   2.233   2.233   2.233
   141.25    2.233   2.233   2.233   2.233   2.233   2.233   2.233   2.233   2.233   2.233   2.233   2.233   2.233   2.233   2.233   2.233   2.233
   130.94    2.233   2.233   2.233   2.233   2.233   2.233   2.233   2.233   2.233   2.233   2.233   2.233   2.233   2.233   2.233   2.233   2.233
   120.62    2.233   2.233   2.233   2.233   2.233   2.233   2.233   2.233   2.233   2.233   2.233   2.233   2.233   2.233   2.233   2.233   2.233
   110.31    2.233   2.233   2.233   2.233   2.233   2.233   2.233   2.233   2.233   2.233   2.233   2.233   2.233   2.233   2.233   2.233   2.233
   100.00    2.233   2.233   2.233   2.233   2.233   2.233   2.233   2.233   2.233   2.233   2.233   2.233   2.233   2.233   2.233   2.233   2.233
    89.69    2.233   2.233   2.233   2.233   2.233   2.233   2.233   2.233   2.233   2.233   2.233   2.233   2.233   2.233   2.233   2.233   2.233
    79.38    2.233   2.233   2.233   2.233   2.233   2.233   2.233   2.233   2.233   2.233   2.233   2.233   2.233   2.233   2.233   2.233   2.233
    69.06    2.233   2.233   2.233   2.233   2.233   2.233   2.233   2.233   2.233   2.233   2.233   2.233   2.233   2.233   2.233   2.233   2.233
    58.75    2.233   2.233   2.233   2.233   2.233   2.233   2.233   2.233   2.233   2.233   2.233   2.233   2.233   2.233   2.233   2.233   2.233
    48.44    2.233   2.233   2.233   2.233   2.233   2.233   2.233   2.233   2.233   2.233   2.233   2.233   2.233   2.233   2.233   2.233   2.233
    38.12    2.233   2.233   2.233   2.233   2.233   2.233   2.233   2.233   2.233   2.233   2.233   2.233   2.233   2.233   2.233   2.233   2.233
    27.81    2.233   2.233   2.233   2.233   2.233   2.233   2.233   2.233   2.233   2.233   2.233   2.233   2.233   2.233   2.233   2.233   2.233
    17.50    2.233   2.233   2.233   2.233   2.233   2.233   2.233   2.233   2.233   2.233   2.233   2.233   2.233   2.233   2.233   2.233   2.233

   Mean standard deviation across all grid points:
      u component:    4.494 m/s
      v component:    3.661 m/s
      w component:    2.233 m/s


U-component (X) statistics from the hub grid point:

   Mean =  42.5000 m/s
   TI   =  10.8335 %


Normalizing Parameters for Binary Data (approximate statistics):

   UBar  =  42.5000 m/s
   TI(u) =  10.8335 %
   TI(v) =   8.6143 %
   TI(w) =   5.2545 %

   Height Offset =   0.0000 m
   Grid Base     =  17.5000 m

Nyquist frequency of turbulent wind field =        10.000 Hz


Processing complete.  6.5781 CPU seconds used.
