
This summary file was generated by TurbSim (v2.00.07a-bjj, 14-Jun-2016) on 17-Dec-2025 at 21:11:53.


Runtime Options:

        16  Random seed #1
    RANLUX  Type of random number generator
         F  Output binary HH turbulence parameters?
         F  Output formatted turbulence parameters?
         F  Output AeroDyn HH files?
         F  Output AeroDyn FF files?
         T  Output BLADED FF files?
         T  Output tower data?
         F  Output formatted FF files?
         F  Output coherent turbulence time step file?
         T  Clockwise rotation when looking downwind?
 0 -  NONE  IEC turbulence models scaled to exact specified standard deviation


Turbine/Model Specifications:

        35  Vertical grid-point matrix dimension
        35  Horizontal grid-point matrix dimension
     0.050  Time step [seconds]
   600.000  Analysis time [seconds]
   600.000  Usable output time [seconds]
   100.000  Hub height [m]
   170.000  Grid height [m]
   170.000  Grid width [m]
     0.000  Vertical flow angle [degrees]
     0.000  Horizontal flow angle [degrees]


Meteorological Boundary Conditions:

    IECKAI  IEC Kaimal spectral model
         1  IEC standard: IEC 61400-1 Ed. 3: 2005
         A  IEC turbulence characteristic
       NTM  IEC Normal Turbulence Model
       N/A  IEC Extreme Turbulence Model (ETM) "c" parameter [m/s]
       PL   Wind profile type
   100.000  Reference height [m]
    20.000  Reference wind speed [m/s]
       N/A  Jet height [m]
     0.200  Power law exponent
     0.030  Surface roughness length [m]


Non-IEC Meteorological Boundary Conditions:

       N/A  Site latitude [degrees]
       N/A  Gradient Richardson number
       N/A  Friction or shear velocity [m/s]
       N/A  Mixing layer depth [m]
       N/A  Mean hub u'w' Reynolds stress
       N/A  Mean hub u'v' Reynolds stress
       N/A  Mean hub v'w' Reynolds stress


Spatial Coherence Models:

       IEC  u-component coherence model
       IEC  v-component coherence model
       IEC  w-component coherence model
(   12.000, 0.353E-03)  u-component coherence parameters
(*********,  0.00    )  v-component coherence parameters
(*********,  0.00    )  w-component coherence parameters
       N/A  Coherence exponent


You have requested that the following file(s) be generated:

   20ms.wnd (AeroDyn/BLADED full-field wnd file)
   20ms.twr (binary tower file)


Turbulence Simulation Scaling Parameter Summary:

   Turbulence model used                            =  IEC Kaimal
   Turbulence characteristic                        =  A
   IEC turbulence type                              =  Normal Turbulence Model
   IEC standard                                     =  IEC 61400-1 Ed. 3: 2005
   Mean wind speed at hub height                    =   20.000 m/s
   Expected value of turbulence intensity at 15 m/s =   16.000%
   Characteristic value of standard deviation       =    3.296 m/s
   Turbulence scale                                 =   42.000 m
   u-component integral scale                       =  340.200 m
   Coherency scale                                  =  340.200 m
   Characteristic value of hub turbulence intensity =   16.480%
   Gradient Richardson number                       =    0.000

   Wind profile type                                =  Power law
   Power law exponent                               =    0.200
   Mean shear across rotor disk                     =    0.053 (m/s)/m
   Assumed rotor diameter                           =  170.000 m
   Surface roughness length                         =    0.030 m

   Nyquist frequency of turbulent wind field        =   10.000 Hz

   Number of time steps in the FFT                  =    12000
   Number of time steps output                      =    12000
   Number of points simulated                       =     1227


Mean Flow Angles:

   Vertical   =   0.0 degrees
   Horizontal =   0.0 degrees

Mean Wind Speed Profile:

   Height    Wind Speed   Horizontal Angle  Vertical Angle  U-comp (X)   V-comp (Y)   W-comp (Z)
     (m)        (m/s)         (degrees)       (degrees)       (m/s)        (m/s)        (m/s)   
   ------    ----------   ----------------  --------------  ----------   ----------   ----------
    185.0       22.62            0.00            0.00         22.62         0.00         0.00
    180.0       22.49            0.00            0.00         22.49         0.00         0.00
    175.0       22.37            0.00            0.00         22.37         0.00         0.00
    170.0       22.24            0.00            0.00         22.24         0.00         0.00
    165.0       22.11            0.00            0.00         22.11         0.00         0.00
    160.0       21.97            0.00            0.00         21.97         0.00         0.00
    155.0       21.83            0.00            0.00         21.83         0.00         0.00
    150.0       21.69            0.00            0.00         21.69         0.00         0.00
    145.0       21.54            0.00            0.00         21.54         0.00         0.00
    140.0       21.39            0.00            0.00         21.39         0.00         0.00
    135.0       21.24            0.00            0.00         21.24         0.00         0.00
    130.0       21.08            0.00            0.00         21.08         0.00         0.00
    125.0       20.91            0.00            0.00         20.91         0.00         0.00
    120.0       20.74            0.00            0.00         20.74         0.00         0.00
    115.0       20.57            0.00            0.00         20.57         0.00         0.00
    110.0       20.38            0.00            0.00         20.38         0.00         0.00
    105.0       20.20            0.00            0.00         20.20         0.00         0.00
    100.0       20.00            0.00            0.00         20.00         0.00         0.00
     95.0       19.80            0.00            0.00         19.80         0.00         0.00
     90.0       19.58            0.00            0.00         19.58         0.00         0.00
     85.0       19.36            0.00            0.00         19.36         0.00         0.00
     80.0       19.13            0.00            0.00         19.13         0.00         0.00
     75.0       18.88            0.00            0.00         18.88         0.00         0.00
     70.0       18.62            0.00            0.00         18.62         0.00         0.00
     65.0       18.35            0.00            0.00         18.35         0.00         0.00
     60.0       18.06            0.00            0.00         18.06         0.00         0.00
     55.0       17.75            0.00            0.00         17.75         0.00         0.00
     50.0       17.41            0.00            0.00         17.41         0.00         0.00
     45.0       17.05            0.00            0.00         17.05         0.00         0.00
     40.0       16.65            0.00            0.00         16.65         0.00         0.00
     35.0       16.21            0.00            0.00         16.21         0.00         0.00
     30.0       15.72            0.00            0.00         15.72         0.00         0.00
     25.0       15.16            0.00            0.00         15.16         0.00         0.00
     20.0       14.50            0.00            0.00         14.50         0.00         0.00
     15.0       13.69            0.00            0.00         13.69         0.00         0.00
     10.0       12.62            0.00            0.00         12.62         0.00         0.00
      5.0       10.99            0.00            0.00         10.99         0.00         0.00


Harvested Random Seeds after Generation of the Random Numbers:

    205215750 K 1
            0 K 2


Hub-Height Simulated Turbulence Statistical Summary:

   Type of Wind        Min (m/s)   Mean (m/s)    Max (m/s)  Sigma (m/s)       TI (%)
   ----------------    ---------   ----------    ---------  -----------       ------
   Longitudinal (u)        10.67        20.00        31.13        3.219       16.094
   Lateral (v)            -10.94         0.00         8.75        2.585       12.924
   Vertical (w)            -5.36        -0.00         6.07        1.601        8.003
   U component             10.67        20.00        31.13        3.219       16.094
   V component            -10.94         0.00         8.75        2.585       12.924
   W component             -5.36        -0.00         6.07        1.601        8.003
   Horizontal (U&V)        11.23        20.17        31.16        3.218       15.957
   Total                   11.33        20.23        31.18        3.208       15.856

                       Min Reynolds     Mean Reynolds    Max Reynolds    Correlation
   Product             Stress (m/s)^2   Stress (m/s)^2   Stress (m/s)^2  Coefficient
   ----------------    --------------   --------------   --------------  -----------
   u'w'                    -40.466            -0.554            30.925        -0.108
   u'v'                    -58.727             0.115            56.721         0.014
   v'w'                    -29.574            -0.155            29.330        -0.038


   Friction Velocity (Ustar)  =      0.744 m/s
   Maximum Instantaneous TKE  =     71.254 (m/s)^2
   Maximum Instantaneous CTKE =     30.002 (m/s)^2


Grid Point Variance Summary:

   Y-coord  -85.00  -80.00  -75.00  -70.00  -65.00  -60.00  -55.00  -50.00  -45.00  -40.00  -35.00  -30.00  -25.00  -20.00  -15.00  -10.00   -5.00    0.00    5.00   10.00   15.00   20.00   25.00   30.00   35.00   40.00   45.00   50.00   55.00   60.00   65.00   70.00   75.00   80.00   85.00

   Height   Standard deviation at grid points for the u component:
   185.00    3.400   3.378   3.339   3.292   3.396   3.211   3.162   3.233   3.261   3.180   3.272   3.357   3.432   3.306   3.349   3.410   3.382   3.324   3.300   3.349   3.430   3.470   3.352   3.205   3.015   3.165   3.108   3.196   3.194   3.286   3.274   3.296   3.391   3.412   3.363
   180.00    3.262   3.371   3.301   3.263   3.352   3.257   3.269   3.312   3.195   3.240   3.222   3.084   3.309   3.344   3.333   3.323   3.349   3.412   3.226   3.324   3.207   3.250   3.275   3.313   3.269   3.137   3.091   3.254   3.166   3.201   3.140   3.138   3.261   3.237   3.270
   175.00    3.377   3.475   3.285   3.214   3.519   3.293   3.261   3.191   3.244   3.255   3.181   3.138   3.231   3.343   3.321   3.111   3.274   3.413   3.385   3.351   3.170   3.101   3.150   3.275   3.180   3.128   3.158   3.100   3.177   3.197   2.771   2.968   3.057   3.122   3.104
   170.00    3.575   3.481   3.438   3.424   3.351   3.478   3.420   3.426   3.377   3.352   3.237   3.150   3.207   3.155   3.277   3.185   3.302   3.386   3.494   3.371   3.256   3.119   3.144   3.184   3.008   2.990   3.090   3.150   3.121   3.023   2.763   2.856   2.895   2.991   2.978
   165.00    3.604   3.495   3.366   3.288   3.246   3.407   3.446   3.502   3.413   3.287   3.193   3.147   3.260   3.220   3.349   3.223   3.371   3.536   3.385   3.322   3.251   3.227   3.053   3.175   3.095   3.066   3.106   3.053   3.165   3.029   2.767   2.763   2.844   2.952   3.051
   160.00    3.524   3.411   3.378   3.237   3.207   3.279   3.241   3.247   3.242   3.382   3.272   3.270   3.331   3.304   3.326   3.327   3.329   3.304   3.311   3.188   3.126   3.272   3.178   3.227   3.181   3.217   3.128   3.139   3.049   2.946   2.902   2.823   2.864   2.909   2.906
   155.00    3.665   3.533   3.363   3.397   3.329   3.264   3.294   3.231   3.243   3.289   3.394   3.286   3.366   3.358   3.345   3.298   3.260   3.314   3.238   3.230   3.204   3.247   3.262   3.266   3.193   3.316   3.186   3.153   3.163   3.075   3.006   2.889   2.948   2.958   2.895
   150.00    3.673   3.572   3.507   3.489   3.323   3.293   3.260   3.298   3.199   3.272   3.197   3.301   3.268   3.311   3.353   3.373   3.222   3.280   3.239   3.256   3.051   3.147   3.198   3.367   3.259   3.190   3.089   3.222   3.307   3.073   3.042   3.041   2.912   2.956   2.932
   145.00    3.683   3.695   3.525   3.477   3.383   3.376   3.309   3.380   3.283   3.195   3.285   3.228   3.255   3.245   3.237   3.285   3.121   3.185   3.256   3.176   3.073   3.028   3.010   3.163   3.160   3.062   3.037   3.082   3.219   3.107   3.098   2.950   2.991   2.932   2.918
   140.00    3.637   3.606   3.588   3.414   3.243   3.283   3.229   3.294   3.273   3.311   3.155   3.232   3.208   3.120   3.126   3.030   2.898   3.065   3.112   3.096   2.907   2.980   2.934   3.003   3.076   2.923   2.845   3.124   3.090   3.025   3.107   3.117   3.005   2.929   2.970
   135.00    3.670   3.635   3.647   3.418   3.351   3.315   3.440   3.369   3.170   3.158   2.972   3.085   3.103   3.063   3.006   2.899   2.841   3.017   3.021   3.127   2.890   2.960   2.954   3.040   3.020   2.834   2.846   3.068   3.191   3.045   3.085   3.060   2.959   2.936   3.053
   130.00    3.887   3.914   3.739   3.652   3.533   3.448   3.499   3.205   3.170   3.075   2.874   2.991   3.032   2.921   2.895   2.898   2.933   2.973   3.144   3.077   2.923   2.850   2.909   3.078   2.921   2.933   2.882   3.010   3.103   3.028   3.039   3.015   2.994   3.075   3.079
   125.00    3.893   3.909   3.899   3.751   3.494   3.472   3.441   3.309   3.298   3.098   2.905   3.002   2.970   2.953   2.994   2.897   2.883   3.114   3.197   3.203   3.133   3.075   2.974   2.970   2.968   2.983   3.037   2.846   2.827   2.826   3.069   3.202   3.189   3.251   3.143
   120.00    3.889   3.855   3.800   3.754   3.573   3.480   3.403   3.260   3.212   3.135   2.933   2.957   2.984   2.940   2.920   2.988   2.917   3.107   3.233   3.228   3.315   3.222   3.028   3.080   2.981   3.094   3.009   2.918   2.938   2.964   3.090   3.233   3.180   3.330   3.281
   115.00    3.818   3.700   3.672   3.526   3.559   3.574   3.343   3.267   3.282   3.202   2.969   2.948   2.998   2.964   3.016   3.050   3.019   3.016   3.201   3.348   3.226   3.181   3.186   3.137   3.053   3.138   2.976   2.974   2.999   3.124   3.061   3.057   3.164   3.242   3.303
   110.00    3.641   3.693   3.553   3.388   3.370   3.539   3.488   3.386   3.425   3.318   3.206   3.228   3.139   3.139   3.039   3.095   3.115   3.054   3.312   3.350   3.299   3.246   3.143   3.057   3.142   3.089   3.152   3.089   3.114   3.136   3.259   3.270   3.458   3.461   3.469
   105.00    3.571   3.567   3.443   3.432   3.529   3.618   3.563   3.449   3.373   3.533   3.421   3.323   3.260   3.054   3.068   3.064   3.080   3.217   3.309   3.308   3.448   3.287   3.081   3.104   3.121   3.109   3.254   3.102   3.115   3.267   3.319   3.254   3.410   3.484   3.515
   100.00    3.573   3.376   3.357   3.325   3.495   3.492   3.444   3.446   3.370   3.467   3.451   3.329   3.238   3.110   3.016   3.101   3.089   3.219   3.347   3.268   3.299   3.239   3.177   3.174   3.059   3.192   3.263   3.181   3.227   3.225   3.216   3.374   3.535   3.425   3.422
    95.00    3.442   3.434   3.319   3.380   3.350   3.459   3.418   3.491   3.465   3.449   3.316   3.404   3.416   3.182   3.103   3.192   3.198   3.181   3.220   3.233   3.293   3.096   3.177   3.174   3.088   3.196   3.318   3.219   3.241   3.301   3.434   3.397   3.550   3.533   3.556
    90.00    3.445   3.511   3.414   3.321   3.226   3.282   3.274   3.340   3.399   3.353   3.354   3.381   3.404   3.274   3.381   3.263   3.152   3.140   3.156   3.102   3.193   3.150   3.113   3.102   2.963   3.226   3.214   3.310   3.225   3.319   3.271   3.405   3.455   3.550   3.679
    85.00    3.331   3.403   3.370   3.312   3.260   3.144   3.206   3.354   3.382   3.476   3.320   3.246   3.283   3.297   3.466   3.327   3.156   3.149   3.071   3.074   3.102   3.030   3.161   3.134   3.128   3.078   3.259   3.226   3.265   3.265   3.405   3.366   3.370   3.414   3.626
    80.00    3.305   3.366   3.430   3.238   3.240   3.169   3.204   3.249   3.162   3.378   3.206   3.191   3.169   3.244   3.342   3.377   3.141   3.248   3.191   3.188   3.054   3.049   3.117   3.113   3.201   3.099   3.172   3.135   3.244   3.377   3.343   3.442   3.403   3.480   3.587
    75.00    3.396   3.379   3.423   3.424   3.189   3.115   3.228   3.234   3.246   3.286   3.127   3.188   3.056   3.257   3.232   3.184   3.134   3.217   3.336   3.219   3.097   3.050   3.089   3.195   3.101   3.036   3.252   3.131   3.236   3.310   3.406   3.426   3.288   3.410   3.538
    70.00    3.341   3.249   3.311   3.261   3.163   3.195   3.245   3.332   3.276   3.239   3.173   3.195   3.214   3.265   3.191   3.389   3.444   3.334   3.235   3.224   3.391   3.221   3.189   3.161   3.151   3.252   3.248   3.336   3.322   3.250   3.465   3.419   3.388   3.385   3.504
    65.00    3.501   3.363   3.283   3.227   3.302   3.207   3.238   3.264   3.331   3.265   3.146   3.305   3.206   3.343   3.437   3.442   3.464   3.386   3.175   3.250   3.448   3.232   3.220   3.199   3.113   3.171   3.239   3.230   3.326   3.387   3.458   3.451   3.472   3.507   3.497
    60.00    3.476   3.429   3.402   3.429   3.329   3.270   3.453   3.370   3.388   3.221   3.143   3.141   3.277   3.331   3.537   3.548   3.516   3.454   3.203   3.289   3.324   3.400   3.252   3.111   3.082   3.165   3.174   3.364   3.336   3.377   3.513   3.651   3.584   3.447   3.372
    55.00    3.407   3.435   3.307   3.417   3.471   3.364   3.399   3.315   3.387   3.469   3.355   3.461   3.355   3.456   3.637   3.534   3.561   3.427   3.304   3.428   3.415   3.396   3.243   3.133   3.130   3.139   3.361   3.257   3.443   3.499   3.635   3.570   3.572   3.589   3.283
    50.00    3.393   3.536   3.391   3.364   3.413   3.292   3.412   3.343   3.365   3.426   3.482   3.558   3.607   3.640   3.606   3.546   3.560   3.454   3.414   3.409   3.525   3.475   3.428   3.236   3.335   3.380   3.298   3.255   3.352   3.624   3.648   3.730   3.691   3.603   3.488
    45.00    3.247   3.351   3.419   3.495   3.286   3.289   3.238   3.308   3.289   3.386   3.437   3.579   3.627   3.602   3.593   3.508   3.520   3.509   3.465   3.444   3.566   3.391   3.327   3.340   3.239   3.371   3.230   3.323   3.450   3.619   3.610   3.606   3.606   3.589   3.577
    40.00    3.429   3.315   3.239   3.331   3.313   3.393   3.314   3.332   3.292   3.187   3.449   3.617   3.464   3.470   3.591   3.719   3.817   3.632   3.513   3.472   3.486   3.330   3.386   3.289   3.301   3.501   3.358   3.451   3.582   3.649   3.614   3.550   3.542   3.680   3.567
    35.00    3.340   3.273   3.264   3.326   3.396   3.245   3.229   3.228   3.234   3.433   3.448   3.634   3.504   3.425   3.484   3.669   3.620   3.676   3.564   3.475   3.432   3.355   3.226   3.236   3.382   3.398   3.417   3.586   3.636   3.659   3.595   3.649   3.720   3.678   3.721
    30.00    3.338   3.220   3.148   3.247   3.184   3.222   3.237   3.227   3.287   3.407   3.436   3.368   3.419   3.515   3.482   3.656   3.677   3.520   3.527   3.418   3.493   3.383   3.188   3.043   3.367   3.469   3.553   3.550   3.597   3.488   3.396   3.541   3.750   3.765   3.778
    25.00    3.276   3.283   3.339   3.168   3.208   3.152   3.137   3.282   3.289   3.295   3.457   3.375   3.252   3.547   3.628   3.669   3.515   3.475   3.458   3.644   3.460   3.271   3.350   3.208   3.375   3.571   3.581   3.635   3.608   3.529   3.364   3.392   3.478   3.696   3.784
    20.00    3.340   3.391   3.332   3.102   3.235   3.172   3.258   3.259   3.290   3.326   3.401   3.331   3.278   3.546   3.481   3.440   3.510   3.573   3.591   3.621   3.461   3.227   3.328   3.303   3.431   3.382   3.574   3.604   3.636   3.610   3.518   3.497   3.507   3.592   3.759
    15.00    3.189   3.365   3.343   3.057   3.224   3.219   3.173   3.154   3.317   3.503   3.450   3.459   3.422   3.358   3.384   3.509   3.575   3.523   3.583   3.460   3.531   3.215   3.282   3.396   3.518   3.642   3.661   3.615   3.398   3.442   3.540   3.671   3.616   3.660   3.743

   Height   Standard deviation at grid points for the v component:
   185.00    2.585   2.585   2.585   2.585   2.585   2.585   2.585   2.585   2.585   2.585   2.585   2.585   2.585   2.585   2.585   2.585   2.585   2.585   2.585   2.585   2.585   2.585   2.585   2.585   2.585   2.585   2.585   2.585   2.585   2.585   2.585   2.585   2.585   2.585   2.585
   180.00    2.585   2.585   2.585   2.585   2.585   2.585   2.585   2.585   2.585   2.585   2.585   2.585   2.585   2.585   2.585   2.585   2.585   2.585   2.585   2.585   2.585   2.585   2.585   2.585   2.585   2.585   2.585   2.585   2.585   2.585   2.585   2.585   2.585   2.585   2.585
   175.00    2.585   2.585   2.585   2.585   2.585   2.585   2.585   2.585   2.585   2.585   2.585   2.585   2.585   2.585   2.585   2.585   2.585   2.585   2.585   2.585   2.585   2.585   2.585   2.585   2.585   2.585   2.585   2.585   2.585   2.585   2.585   2.585   2.585   2.585   2.585
   170.00    2.585   2.585   2.585   2.585   2.585   2.585   2.585   2.585   2.585   2.585   2.585   2.585   2.585   2.585   2.585   2.585   2.585   2.585   2.585   2.585   2.585   2.585   2.585   2.585   2.585   2.585   2.585   2.585   2.585   2.585   2.585   2.585   2.585   2.585   2.585
   165.00    2.585   2.585   2.585   2.585   2.585   2.585   2.585   2.585   2.585   2.585   2.585   2.585   2.585   2.585   2.585   2.585   2.585   2.585   2.585   2.585   2.585   2.585   2.585   2.585   2.585   2.585   2.585   2.585   2.585   2.585   2.585   2.585   2.585   2.585   2.585
   160.00    2.585   2.585   2.585   2.585   2.585   2.585   2.585   2.585   2.585   2.585   2.585   2.585   2.585   2.585   2.585   2.585   2.585   2.585   2.585   2.585   2.585   2.585   2.585   2.585   2.585   2.585   2.585   2.585   2.585   2.585   2.585   2.585   2.585   2.585   2.585
   155.00    2.585   2.585   2.585   2.585   2.585   2.585   2.585   2.585   2.585   2.585   2.585   2.585   2.585   2.585   2.585   2.585   2.585   2.585   2.585   2.585   2.585   2.585   2.585   2.585   2.585   2.585   2.585   2.585   2.585   2.585   2.585   2.585   2.585   2.585   2.585
   150.00    2.585   2.585   2.585   2.585   2.585   2.585   2.585   2.585   2.585   2.585   2.585   2.585   2.585   2.585   2.585   2.585   2.585   2.585   2.585   2.585   2.585   2.585   2.585   2.585   2.585   2.585   2.585   2.585   2.585   2.585   2.585   2.585   2.585   2.585   2.585
   145.00    2.585   2.585   2.585   2.585   2.585   2.585   2.585   2.585   2.585   2.585   2.585   2.585   2.585   2.585   2.585   2.585   2.585   2.585   2.585   2.585   2.585   2.585   2.585   2.585   2.585   2.585   2.585   2.585   2.585   2.585   2.585   2.585   2.585   2.585   2.585
   140.00    2.585   2.585   2.585   2.585   2.585   2.585   2.585   2.585   2.585   2.585   2.585   2.585   2.585   2.585   2.585   2.585   2.585   2.585   2.585   2.585   2.585   2.585   2.585   2.585   2.585   2.585   2.585   2.585   2.585   2.585   2.585   2.585   2.585   2.585   2.585
   135.00    2.585   2.585   2.585   2.585   2.585   2.585   2.585   2.585   2.585   2.585   2.585   2.585   2.585   2.585   2.585   2.585   2.585   2.585   2.585   2.585   2.585   2.585   2.585   2.585   2.585   2.585   2.585   2.585   2.585   2.585   2.585   2.585   2.585   2.585   2.585
   130.00    2.585   2.585   2.585   2.585   2.585   2.585   2.585   2.585   2.585   2.585   2.585   2.585   2.585   2.585   2.585   2.585   2.585   2.585   2.585   2.585   2.585   2.585   2.585   2.585   2.585   2.585   2.585   2.585   2.585   2.585   2.585   2.585   2.585   2.585   2.585
   125.00    2.585   2.585   2.585   2.585   2.585   2.585   2.585   2.585   2.585   2.585   2.585   2.585   2.585   2.585   2.585   2.585   2.585   2.585   2.585   2.585   2.585   2.585   2.585   2.585   2.585   2.585   2.585   2.585   2.585   2.585   2.585   2.585   2.585   2.585   2.585
   120.00    2.585   2.585   2.585   2.585   2.585   2.585   2.585   2.585   2.585   2.585   2.585   2.585   2.585   2.585   2.585   2.585   2.585   2.585   2.585   2.585   2.585   2.585   2.585   2.585   2.585   2.585   2.585   2.585   2.585   2.585   2.585   2.585   2.585   2.585   2.585
   115.00    2.585   2.585   2.585   2.585   2.585   2.585   2.585   2.585   2.585   2.585   2.585   2.585   2.585   2.585   2.585   2.585   2.585   2.585   2.585   2.585   2.585   2.585   2.585   2.585   2.585   2.585   2.585   2.585   2.585   2.585   2.585   2.585   2.585   2.585   2.585
   110.00    2.585   2.585   2.585   2.585   2.585   2.585   2.585   2.585   2.585   2.585   2.585   2.585   2.585   2.585   2.585   2.585   2.585   2.585   2.585   2.585   2.585   2.585   2.585   2.585   2.585   2.585   2.585   2.585   2.585   2.585   2.585   2.585   2.585   2.585   2.585
   105.00    2.585   2.585   2.585   2.585   2.585   2.585   2.585   2.585   2.585   2.585   2.585   2.585   2.585   2.585   2.585   2.585   2.585   2.585   2.585   2.585   2.585   2.585   2.585   2.585   2.585   2.585   2.585   2.585   2.585   2.585   2.585   2.585   2.585   2.585   2.585
   100.00    2.585   2.585   2.585   2.585   2.585   2.585   2.585   2.585   2.585   2.585   2.585   2.585   2.585   2.585   2.585   2.585   2.585   2.585   2.585   2.585   2.585   2.585   2.585   2.585   2.585   2.585   2.585   2.585   2.585   2.585   2.585   2.585   2.585   2.585   2.585
    95.00    2.585   2.585   2.585   2.585   2.585   2.585   2.585   2.585   2.585   2.585   2.585   2.585   2.585   2.585   2.585   2.585   2.585   2.585   2.585   2.585   2.585   2.585   2.585   2.585   2.585   2.585   2.585   2.585   2.585   2.585   2.585   2.585   2.585   2.585   2.585
    90.00    2.585   2.585   2.585   2.585   2.585   2.585   2.585   2.585   2.585   2.585   2.585   2.585   2.585   2.585   2.585   2.585   2.585   2.585   2.585   2.585   2.585   2.585   2.585   2.585   2.585   2.585   2.585   2.585   2.585   2.585   2.585   2.585   2.585   2.585   2.585
    85.00    2.585   2.585   2.585   2.585   2.585   2.585   2.585   2.585   2.585   2.585   2.585   2.585   2.585   2.585   2.585   2.585   2.585   2.585   2.585   2.585   2.585   2.585   2.585   2.585   2.585   2.585   2.585   2.585   2.585   2.585   2.585   2.585   2.585   2.585   2.585
    80.00    2.585   2.585   2.585   2.585   2.585   2.585   2.585   2.585   2.585   2.585   2.585   2.585   2.585   2.585   2.585   2.585   2.585   2.585   2.585   2.585   2.585   2.585   2.585   2.585   2.585   2.585   2.585   2.585   2.585   2.585   2.585   2.585   2.585   2.585   2.585
    75.00    2.585   2.585   2.585   2.585   2.585   2.585   2.585   2.585   2.585   2.585   2.585   2.585   2.585   2.585   2.585   2.585   2.585   2.585   2.585   2.585   2.585   2.585   2.585   2.585   2.585   2.585   2.585   2.585   2.585   2.585   2.585   2.585   2.585   2.585   2.585
    70.00    2.585   2.585   2.585   2.585   2.585   2.585   2.585   2.585   2.585   2.585   2.585   2.585   2.585   2.585   2.585   2.585   2.585   2.585   2.585   2.585   2.585   2.585   2.585   2.585   2.585   2.585   2.585   2.585   2.585   2.585   2.585   2.585   2.585   2.585   2.585
    65.00    2.585   2.585   2.585   2.585   2.585   2.585   2.585   2.585   2.585   2.585   2.585   2.585   2.585   2.585   2.585   2.585   2.585   2.585   2.585   2.585   2.585   2.585   2.585   2.585   2.585   2.585   2.585   2.585   2.585   2.585   2.585   2.585   2.585   2.585   2.585
    60.00    2.585   2.585   2.585   2.585   2.585   2.585   2.585   2.585   2.585   2.585   2.585   2.585   2.585   2.585   2.585   2.585   2.585   2.585   2.585   2.585   2.585   2.585   2.585   2.585   2.585   2.585   2.585   2.585   2.585   2.585   2.585   2.585   2.585   2.585   2.585
    55.00    2.585   2.585   2.585   2.585   2.585   2.585   2.585   2.585   2.585   2.585   2.585   2.585   2.585   2.585   2.585   2.585   2.585   2.585   2.585   2.585   2.585   2.585   2.585   2.585   2.585   2.585   2.585   2.585   2.585   2.585   2.585   2.585   2.585   2.585   2.585
    50.00    2.585   2.585   2.585   2.585   2.585   2.585   2.585   2.585   2.585   2.585   2.585   2.585   2.585   2.585   2.585   2.585   2.585   2.585   2.585   2.585   2.585   2.585   2.585   2.585   2.585   2.585   2.585   2.585   2.585   2.585   2.585   2.585   2.585   2.585   2.585
    45.00    2.585   2.585   2.585   2.585   2.585   2.585   2.585   2.585   2.585   2.585   2.585   2.585   2.585   2.585   2.585   2.585   2.585   2.585   2.585   2.585   2.585   2.585   2.585   2.585   2.585   2.585   2.585   2.585   2.585   2.585   2.585   2.585   2.585   2.585   2.585
    40.00    2.585   2.585   2.585   2.585   2.585   2.585   2.585   2.585   2.585   2.585   2.585   2.585   2.585   2.585   2.585   2.585   2.585   2.585   2.585   2.585   2.585   2.585   2.585   2.585   2.585   2.585   2.585   2.585   2.585   2.585   2.585   2.585   2.585   2.585   2.585
    35.00    2.585   2.585   2.585   2.585   2.585   2.585   2.585   2.585   2.585   2.585   2.585   2.585   2.585   2.585   2.585   2.585   2.585   2.585   2.585   2.585   2.585   2.585   2.585   2.585   2.585   2.585   2.585   2.585   2.585   2.585   2.585   2.585   2.585   2.585   2.585
    30.00    2.585   2.585   2.585   2.585   2.585   2.585   2.585   2.585   2.585   2.585   2.585   2.585   2.585   2.585   2.585   2.585   2.585   2.585   2.585   2.585   2.585   2.585   2.585   2.585   2.585   2.585   2.585   2.585   2.585   2.585   2.585   2.585   2.585   2.585   2.585
    25.00    2.585   2.585   2.585   2.585   2.585   2.585   2.585   2.585   2.585   2.585   2.585   2.585   2.585   2.585   2.585   2.585   2.585   2.585   2.585   2.585   2.585   2.585   2.585   2.585   2.585   2.585   2.585   2.585   2.585   2.585   2.585   2.585   2.585   2.585   2.585
    20.00    2.585   2.585   2.585   2.585   2.585   2.585   2.585   2.585   2.585   2.585   2.585   2.585   2.585   2.585   2.585   2.585   2.585   2.585   2.585   2.585   2.585   2.585   2.585   2.585   2.585   2.585   2.585   2.585   2.585   2.585   2.585   2.585   2.585   2.585   2.585
    15.00    2.585   2.585   2.585   2.585   2.585   2.585   2.585   2.585   2.585   2.585   2.585   2.585   2.585   2.585   2.585   2.585   2.585   2.585   2.585   2.585   2.585   2.585   2.585   2.585   2.585   2.585   2.585   2.585   2.585   2.585   2.585   2.585   2.585   2.585   2.585

   Height   Standard deviation at grid points for the w component:
   185.00    1.601   1.601   1.601   1.601   1.601   1.601   1.601   1.601   1.601   1.601   1.601   1.601   1.601   1.601   1.601   1.601   1.601   1.601   1.601   1.601   1.601   1.601   1.601   1.601   1.601   1.601   1.601   1.601   1.601   1.601   1.601   1.601   1.601   1.601   1.601
   180.00    1.601   1.601   1.601   1.601   1.601   1.601   1.601   1.601   1.601   1.601   1.601   1.601   1.601   1.601   1.601   1.601   1.601   1.601   1.601   1.601   1.601   1.601   1.601   1.601   1.601   1.601   1.601   1.601   1.601   1.601   1.601   1.601   1.601   1.601   1.601
   175.00    1.601   1.601   1.601   1.601   1.601   1.601   1.601   1.601   1.601   1.601   1.601   1.601   1.601   1.601   1.601   1.601   1.601   1.601   1.601   1.601   1.601   1.601   1.601   1.601   1.601   1.601   1.601   1.601   1.601   1.601   1.601   1.601   1.601   1.601   1.601
   170.00    1.601   1.601   1.601   1.601   1.601   1.601   1.601   1.601   1.601   1.601   1.601   1.601   1.601   1.601   1.601   1.601   1.601   1.601   1.601   1.601   1.601   1.601   1.601   1.601   1.601   1.601   1.601   1.601   1.601   1.601   1.601   1.601   1.601   1.601   1.601
   165.00    1.601   1.601   1.601   1.601   1.601   1.601   1.601   1.601   1.601   1.601   1.601   1.601   1.601   1.601   1.601   1.601   1.601   1.601   1.601   1.601   1.601   1.601   1.601   1.601   1.601   1.601   1.601   1.601   1.601   1.601   1.601   1.601   1.601   1.601   1.601
   160.00    1.601   1.601   1.601   1.601   1.601   1.601   1.601   1.601   1.601   1.601   1.601   1.601   1.601   1.601   1.601   1.601   1.601   1.601   1.601   1.601   1.601   1.601   1.601   1.601   1.601   1.601   1.601   1.601   1.601   1.601   1.601   1.601   1.601   1.601   1.601
   155.00    1.601   1.601   1.601   1.601   1.601   1.601   1.601   1.601   1.601   1.601   1.601   1.601   1.601   1.601   1.601   1.601   1.601   1.601   1.601   1.601   1.601   1.601   1.601   1.601   1.601   1.601   1.601   1.601   1.601   1.601   1.601   1.601   1.601   1.601   1.601
   150.00    1.601   1.601   1.601   1.601   1.601   1.601   1.601   1.601   1.601   1.601   1.601   1.601   1.601   1.601   1.601   1.601   1.601   1.601   1.601   1.601   1.601   1.601   1.601   1.601   1.601   1.601   1.601   1.601   1.601   1.601   1.601   1.601   1.601   1.601   1.601
   145.00    1.601   1.601   1.601   1.601   1.601   1.601   1.601   1.601   1.601   1.601   1.601   1.601   1.601   1.601   1.601   1.601   1.601   1.601   1.601   1.601   1.601   1.601   1.601   1.601   1.601   1.601   1.601   1.601   1.601   1.601   1.601   1.601   1.601   1.601   1.601
   140.00    1.601   1.601   1.601   1.601   1.601   1.601   1.601   1.601   1.601   1.601   1.601   1.601   1.601   1.601   1.601   1.601   1.601   1.601   1.601   1.601   1.601   1.601   1.601   1.601   1.601   1.601   1.601   1.601   1.601   1.601   1.601   1.601   1.601   1.601   1.601
   135.00    1.601   1.601   1.601   1.601   1.601   1.601   1.601   1.601   1.601   1.601   1.601   1.601   1.601   1.601   1.601   1.601   1.601   1.601   1.601   1.601   1.601   1.601   1.601   1.601   1.601   1.601   1.601   1.601   1.601   1.601   1.601   1.601   1.601   1.601   1.601
   130.00    1.601   1.601   1.601   1.601   1.601   1.601   1.601   1.601   1.601   1.601   1.601   1.601   1.601   1.601   1.601   1.601   1.601   1.601   1.601   1.601   1.601   1.601   1.601   1.601   1.601   1.601   1.601   1.601   1.601   1.601   1.601   1.601   1.601   1.601   1.601
   125.00    1.601   1.601   1.601   1.601   1.601   1.601   1.601   1.601   1.601   1.601   1.601   1.601   1.601   1.601   1.601   1.601   1.601   1.601   1.601   1.601   1.601   1.601   1.601   1.601   1.601   1.601   1.601   1.601   1.601   1.601   1.601   1.601   1.601   1.601   1.601
   120.00    1.601   1.601   1.601   1.601   1.601   1.601   1.601   1.601   1.601   1.601   1.601   1.601   1.601   1.601   1.601   1.601   1.601   1.601   1.601   1.601   1.601   1.601   1.601   1.601   1.601   1.601   1.601   1.601   1.601   1.601   1.601   1.601   1.601   1.601   1.601
   115.00    1.601   1.601   1.601   1.601   1.601   1.601   1.601   1.601   1.601   1.601   1.601   1.601   1.601   1.601   1.601   1.601   1.601   1.601   1.601   1.601   1.601   1.601   1.601   1.601   1.601   1.601   1.601   1.601   1.601   1.601   1.601   1.601   1.601   1.601   1.601
   110.00    1.601   1.601   1.601   1.601   1.601   1.601   1.601   1.601   1.601   1.601   1.601   1.601   1.601   1.601   1.601   1.601   1.601   1.601   1.601   1.601   1.601   1.601   1.601   1.601   1.601   1.601   1.601   1.601   1.601   1.601   1.601   1.601   1.601   1.601   1.601
   105.00    1.601   1.601   1.601   1.601   1.601   1.601   1.601   1.601   1.601   1.601   1.601   1.601   1.601   1.601   1.601   1.601   1.601   1.601   1.601   1.601   1.601   1.601   1.601   1.601   1.601   1.601   1.601   1.601   1.601   1.601   1.601   1.601   1.601   1.601   1.601
   100.00    1.601   1.601   1.601   1.601   1.601   1.601   1.601   1.601   1.601   1.601   1.601   1.601   1.601   1.601   1.601   1.601   1.601   1.601   1.601   1.601   1.601   1.601   1.601   1.601   1.601   1.601   1.601   1.601   1.601   1.601   1.601   1.601   1.601   1.601   1.601
    95.00    1.601   1.601   1.601   1.601   1.601   1.601   1.601   1.601   1.601   1.601   1.601   1.601   1.601   1.601   1.601   1.601   1.601   1.601   1.601   1.601   1.601   1.601   1.601   1.601   1.601   1.601   1.601   1.601   1.601   1.601   1.601   1.601   1.601   1.601   1.601
    90.00    1.601   1.601   1.601   1.601   1.601   1.601   1.601   1.601   1.601   1.601   1.601   1.601   1.601   1.601   1.601   1.601   1.601   1.601   1.601   1.601   1.601   1.601   1.601   1.601   1.601   1.601   1.601   1.601   1.601   1.601   1.601   1.601   1.601   1.601   1.601
    85.00    1.601   1.601   1.601   1.601   1.601   1.601   1.601   1.601   1.601   1.601   1.601   1.601   1.601   1.601   1.601   1.601   1.601   1.601   1.601   1.601   1.601   1.601   1.601   1.601   1.601   1.601   1.601   1.601   1.601   1.601   1.601   1.601   1.601   1.601   1.601
    80.00    1.601   1.601   1.601   1.601   1.601   1.601   1.601   1.601   1.601   1.601   1.601   1.601   1.601   1.601   1.601   1.601   1.601   1.601   1.601   1.601   1.601   1.601   1.601   1.601   1.601   1.601   1.601   1.601   1.601   1.601   1.601   1.601   1.601   1.601   1.601
    75.00    1.601   1.601   1.601   1.601   1.601   1.601   1.601   1.601   1.601   1.601   1.601   1.601   1.601   1.601   1.601   1.601   1.601   1.601   1.601   1.601   1.601   1.601   1.601   1.601   1.601   1.601   1.601   1.601   1.601   1.601   1.601   1.601   1.601   1.601   1.601
    70.00    1.601   1.601   1.601   1.601   1.601   1.601   1.601   1.601   1.601   1.601   1.601   1.601   1.601   1.601   1.601   1.601   1.601   1.601   1.601   1.601   1.601   1.601   1.601   1.601   1.601   1.601   1.601   1.601   1.601   1.601   1.601   1.601   1.601   1.601   1.601
    65.00    1.601   1.601   1.601   1.601   1.601   1.601   1.601   1.601   1.601   1.601   1.601   1.601   1.601   1.601   1.601   1.601   1.601   1.601   1.601   1.601   1.601   1.601   1.601   1.601   1.601   1.601   1.601   1.601   1.601   1.601   1.601   1.601   1.601   1.601   1.601
    60.00    1.601   1.601   1.601   1.601   1.601   1.601   1.601   1.601   1.601   1.601   1.601   1.601   1.601   1.601   1.601   1.601   1.601   1.601   1.601   1.601   1.601   1.601   1.601   1.601   1.601   1.601   1.601   1.601   1.601   1.601   1.601   1.601   1.601   1.601   1.601
    55.00    1.601   1.601   1.601   1.601   1.601   1.601   1.601   1.601   1.601   1.601   1.601   1.601   1.601   1.601   1.601   1.601   1.601   1.601   1.601   1.601   1.601   1.601   1.601   1.601   1.601   1.601   1.601   1.601   1.601   1.601   1.601   1.601   1.601   1.601   1.601
    50.00    1.601   1.601   1.601   1.601   1.601   1.601   1.601   1.601   1.601   1.601   1.601   1.601   1.601   1.601   1.601   1.601   1.601   1.601   1.601   1.601   1.601   1.601   1.601   1.601   1.601   1.601   1.601   1.601   1.601   1.601   1.601   1.601   1.601   1.601   1.601
    45.00    1.601   1.601   1.601   1.601   1.601   1.601   1.601   1.601   1.601   1.601   1.601   1.601   1.601   1.601   1.601   1.601   1.601   1.601   1.601   1.601   1.601   1.601   1.601   1.601   1.601   1.601   1.601   1.601   1.601   1.601   1.601   1.601   1.601   1.601   1.601
    40.00    1.601   1.601   1.601   1.601   1.601   1.601   1.601   1.601   1.601   1.601   1.601   1.601   1.601   1.601   1.601   1.601   1.601   1.601   1.601   1.601   1.601   1.601   1.601   1.601   1.601   1.601   1.601   1.601   1.601   1.601   1.601   1.601   1.601   1.601   1.601
    35.00    1.601   1.601   1.601   1.601   1.601   1.601   1.601   1.601   1.601   1.601   1.601   1.601   1.601   1.601   1.601   1.601   1.601   1.601   1.601   1.601   1.601   1.601   1.601   1.601   1.601   1.601   1.601   1.601   1.601   1.601   1.601   1.601   1.601   1.601   1.601
    30.00    1.601   1.601   1.601   1.601   1.601   1.601   1.601   1.601   1.601   1.601   1.601   1.601   1.601   1.601   1.601   1.601   1.601   1.601   1.601   1.601   1.601   1.601   1.601   1.601   1.601   1.601   1.601   1.601   1.601   1.601   1.601   1.601   1.601   1.601   1.601
    25.00    1.601   1.601   1.601   1.601   1.601   1.601   1.601   1.601   1.601   1.601   1.601   1.601   1.601   1.601   1.601   1.601   1.601   1.601   1.601   1.601   1.601   1.601   1.601   1.601   1.601   1.601   1.601   1.601   1.601   1.601   1.601   1.601   1.601   1.601   1.601
    20.00    1.601   1.601   1.601   1.601   1.601   1.601   1.601   1.601   1.601   1.601   1.601   1.601   1.601   1.601   1.601   1.601   1.601   1.601   1.601   1.601   1.601   1.601   1.601   1.601   1.601   1.601   1.601   1.601   1.601   1.601   1.601   1.601   1.601   1.601   1.601
    15.00    1.601   1.601   1.601   1.601   1.601   1.601   1.601   1.601   1.601   1.601   1.601   1.601   1.601   1.601   1.601   1.601   1.601   1.601   1.601   1.601   1.601   1.601   1.601   1.601   1.601   1.601   1.601   1.601   1.601   1.601   1.601   1.601   1.601   1.601   1.601

   Mean standard deviation across all grid points:
      u component:    3.293 m/s
      v component:    2.585 m/s
      w component:    1.601 m/s


U-component (X) statistics from the interpolated hub point:

   Mean =  20.0000 m/s
   TI   =  16.0942 %


Normalizing Parameters for Binary Data (approximate statistics):

   UBar  =  20.0000 m/s
   TI(u) =  16.0942 %
   TI(v) =  12.9238 %
   TI(w) =   8.0031 %

   Height Offset =   0.0000 m
   Grid Base     =  15.0000 m

Creating a PERIODIC output file.


Processing complete.  591.28 CPU seconds used.
