
This summary file was generated by TurbSim (v1.06.00, 21-Sep-2012) on 13-Dec-2025 at 22:28:21.


Runtime Options:

   2021998  Random seed #1
    RANLUX  Type of random number generator
         F  Output binary HH turbulence parameters?
         F  Output formatted turbulence parameters?
         F  Output AeroDyn HH files?
         F  Output AeroDyn FF files?
         T  Output BLADED FF files?
         T  Output tower data?
         F  Output formatted FF files?
         F  Output coherent turbulence time step file?
         T  Clockwise rotation when looking downwind?
 0 -  NONE  IEC turbulence models scaled to exact specified standard deviation


Turbine/Model Specifications:

        17  Vertical grid-point matrix dimension
        17  Horizontal grid-point matrix dimension
     0.050  Time step [seconds]
    60.000  Analysis time [seconds]
   660.000  Usable output time [seconds]
   100.000  Hub height [m]
   165.000  Grid height [m]
   165.000  Grid width [m]
     0.000  Vertical flow angle [degrees]
     0.000  Horizontal flow angle [degrees]


Meteorological Boundary Conditions:

    IECKAI  IEC Kaimal spectral model
         1  IEC standard: IEC 61400-1 Ed. 3: 2005
         A  IEC turbulence characteristic
      2ETM  IEC Extreme Turbulence Model
     2.000  IEC Extreme Turbulence Model (ETM) "c" parameter [m/s]
       IEC  Wind profile type
   100.000  Reference height [m]
    19.000  Reference wind speed [m/s]
       N/A  Jet height [m]
     0.200  Power law exponent
     0.030  Surface roughness length [m]


You have requested that the following file(s) be generated:

   19ms_2A.wnd (AeroDyn/BLADED full-field wnd file)
   19ms_2A.twr (Binary tower twr file)


Turbulence Simulation Scaling Parameter Summary:

   Turbulence model used                            =  IEC Kaimal
   Turbulence characteristic                        =  2A
   IEC turbulence type                              =  Extreme Turbulence Model
   Reference wind speed average over 10 minutes     =   42.500 m/s
   Annual wind speed average at hub height          =    8.500 m/s
   IEC standard                                     =  IEC 61400-1 Ed. 3: 2005
   Mean wind speed at hub height                    =   19.000 m/s
   Expected value of turbulence intensity at 15 m/s =   16.000%
   Characteristic value of standard deviation       =    4.119 m/s
   Turbulence scale                                 =   42.000 m
   u-component integral scale                       =  340.200 m
   Coherency scale                                  =  340.200 m
   Characteristic value of hub turbulence intensity =   21.677%
   Gradient Richardson number                       =    0.000

   Wind profile type                                =  Power law on rotor disk, logarithmic elsewhere
   Power law exponent                               =    0.200
   Mean shear across rotor disk                     =    0.049 (m/s)/m
   Assumed rotor diameter                           =  165.000 m
   Surface roughness length                         =    0.030 m

   Number of time steps in the FFT                  =    13376
   Number of time steps output                      =    13374


Mean Flow Angles:

   Vertical   =   0.0 degrees
   Horizontal =   0.0 degrees

Mean Wind Speed Profile:

   Height    Wind Speed   Horizontal Angle  U-comp (X)   V-comp (Y)   W-comp (Z)
     (m)        (m/s)         (degrees)       (m/s)        (m/s)        (m/s)   
   ------    ----------   ----------------  ----------   ----------   ----------
    182.5       21.43            0.00         21.43         0.00         0.00
    172.2       21.18            0.00         21.18         0.00         0.00
    161.9       20.92            0.00         20.92         0.00         0.00
    151.6       20.65            0.00         20.65         0.00         0.00
    141.2       20.36            0.00         20.36         0.00         0.00
    130.9       20.05            0.00         20.05         0.00         0.00
    120.6       19.73            0.00         19.73         0.00         0.00
    110.3       19.38            0.00         19.38         0.00         0.00
    100.0       19.00            0.00         19.00         0.00         0.00
     89.7       18.59            0.00         18.59         0.00         0.00
     79.4       18.14            0.00         18.14         0.00         0.00
     69.1       17.64            0.00         17.64         0.00         0.00
     58.8       17.08            0.00         17.08         0.00         0.00
     48.4       16.44            0.00         16.44         0.00         0.00
     38.1       15.67            0.00         15.67         0.00         0.00
     27.8       14.71            0.00         14.71         0.00         0.00
     17.5       13.41            0.00         13.41         0.00         0.00
      7.2       12.83            0.00         12.83         0.00         0.00


Harvested Random Seeds after Generation of the Random Numbers:

     54064120 K1
            0 K2


Hub-Height Simulated Turbulence Statistical Summary:

   Type of Wind        Min (m/s)   Mean (m/s)    Max (m/s)  Sigma (m/s)       TI (%)
   ----------------    ---------   ----------    ---------  -----------       ------
   Longitudinal (u)         5.32        19.00        30.77        4.117       21.669
   Lateral (v)            -11.76         0.00        10.47        3.233       17.015
   Vertical (w)            -7.88         0.00         6.97        2.002       10.538
   U component              5.32        19.00        30.77        4.117       21.669
   V component            -11.76         0.00        10.47        3.233       17.015
   W component             -7.88         0.00         6.97        2.002       10.538
   Horizontal (U&V)         5.44        19.28        31.05        4.071       21.111
   Total                    6.29        19.39        31.06        4.062       20.952

                       Min Reynolds     Mean Reynolds    Max Reynolds    Correlation
   Product             Stress (m/s)^2   Stress (m/s)^2   Stress (m/s)^2  Coefficient
   ----------------    --------------   --------------   --------------  -----------
   u'w'                    -54.490             0.266            61.982         0.032
   u'v'                    -84.288             0.050            95.321         0.004
   v'w'                    -37.527             0.097            50.175         0.015


   Friction Velocity (Ustar)  =      0.516 m/s
   Maximum Instantaneous TKE  =     99.283 (m/s)^2
   Maximum Instantaneous CTKE =     48.300 (m/s)^2


Grid Point Variance Summary:

   Y-coord  -82.50  -72.19  -61.88  -51.56  -41.25  -30.94  -20.62  -10.31    0.00   10.31   20.62   30.94   41.25   51.56   61.88   72.19   82.50

   Height   Standard deviation at grid points for the u component:
   182.50    3.592   3.627   3.828   3.823   4.129   3.716   3.824   4.082   4.024   4.047   4.300   4.146   4.216   4.634   4.103   4.058   3.979
   172.19    3.840   3.829   3.741   3.860   3.684   3.787   3.916   4.072   4.108   4.299   4.163   4.434   4.463   4.491   4.265   3.890   3.817
   161.88    3.708   3.613   3.667   3.980   3.944   3.891   3.945   4.094   4.206   4.344   4.302   4.294   4.585   4.616   4.231   3.956   3.903
   151.56    3.856   3.815   3.878   4.033   4.088   4.325   4.353   4.384   4.221   4.583   4.594   4.088   4.490   4.385   4.025   3.745   3.722
   141.25    3.648   3.833   3.873   3.915   3.996   4.214   4.463   4.606   4.308   4.462   4.428   4.413   4.479   4.063   3.671   3.622   3.839
   130.94    3.586   3.822   4.138   4.057   4.095   3.979   4.230   4.309   4.303   4.346   4.474   4.517   4.328   3.838   3.853   3.839   3.937
   120.62    3.776   3.860   4.072   4.317   4.097   4.074   4.183   4.072   4.049   4.114   4.330   4.507   4.487   4.119   4.039   4.019   4.072
   110.31    4.071   4.207   4.333   4.217   4.308   4.132   4.149   3.967   3.908   3.896   4.204   4.313   4.124   4.299   4.308   4.402   4.375
   100.00    4.445   4.614   4.219   4.063   4.373   4.163   3.869   4.029   4.117   3.912   3.886   3.935   4.075   3.929   4.190   4.235   4.331
    89.69    4.307   4.297   4.140   4.143   4.142   4.095   4.017   3.994   3.938   3.804   3.855   3.861   4.140   4.378   4.232   4.284   4.216
    79.38    4.178   4.300   4.272   4.202   4.112   4.250   4.015   4.068   4.068   4.051   4.135   4.155   4.158   4.141   4.301   4.231   4.097
    69.06    4.097   4.181   4.221   4.265   4.142   4.171   4.300   4.218   4.349   4.343   4.199   4.196   4.396   4.310   4.410   4.288   4.223
    58.75    3.901   3.957   4.111   4.138   4.202   4.123   4.255   4.206   4.189   4.493   4.204   4.262   4.371   4.595   4.495   4.561   4.329
    48.44    3.666   3.822   3.906   4.250   4.122   4.199   4.292   4.334   4.258   4.420   4.478   4.508   4.376   4.442   4.568   4.600   4.372
    38.12    4.106   3.904   4.157   4.251   4.115   4.115   4.404   4.299   4.172   4.155   4.276   4.502   4.522   4.420   4.363   4.420   4.397
    27.81    4.259   4.168   4.460   4.143   4.129   4.214   4.254   4.051   3.989   4.027   4.019   4.289   4.438   4.353   4.379   4.572   4.254
    17.50    3.992   4.140   4.391   4.366   4.333   4.444   4.094   4.120   4.170   4.183   4.236   4.490   4.408   4.401   4.298   4.437   4.353

   Height   Standard deviation at grid points for the v component:
   182.50    3.233   3.233   3.233   3.233   3.233   3.233   3.233   3.233   3.233   3.233   3.233   3.233   3.233   3.233   3.233   3.233   3.233
   172.19    3.233   3.233   3.233   3.233   3.233   3.233   3.233   3.233   3.233   3.233   3.233   3.233   3.233   3.233   3.233   3.233   3.233
   161.88    3.233   3.233   3.233   3.233   3.233   3.233   3.233   3.233   3.233   3.233   3.233   3.233   3.233   3.233   3.233   3.233   3.233
   151.56    3.233   3.233   3.233   3.233   3.233   3.233   3.233   3.233   3.233   3.233   3.233   3.233   3.233   3.233   3.233   3.233   3.233
   141.25    3.233   3.233   3.233   3.233   3.233   3.233   3.233   3.233   3.233   3.233   3.233   3.233   3.233   3.233   3.233   3.233   3.233
   130.94    3.233   3.233   3.233   3.233   3.233   3.233   3.233   3.233   3.233   3.233   3.233   3.233   3.233   3.233   3.233   3.233   3.233
   120.62    3.233   3.233   3.233   3.233   3.233   3.233   3.233   3.233   3.233   3.233   3.233   3.233   3.233   3.233   3.233   3.233   3.233
   110.31    3.233   3.233   3.233   3.233   3.233   3.233   3.233   3.233   3.233   3.233   3.233   3.233   3.233   3.233   3.233   3.233   3.233
   100.00    3.233   3.233   3.233   3.233   3.233   3.233   3.233   3.233   3.233   3.233   3.233   3.233   3.233   3.233   3.233   3.233   3.233
    89.69    3.233   3.233   3.233   3.233   3.233   3.233   3.233   3.233   3.233   3.233   3.233   3.233   3.233   3.233   3.233   3.233   3.233
    79.38    3.233   3.233   3.233   3.233   3.233   3.233   3.233   3.233   3.233   3.233   3.233   3.233   3.233   3.233   3.233   3.233   3.233
    69.06    3.233   3.233   3.233   3.233   3.233   3.233   3.233   3.233   3.233   3.233   3.233   3.233   3.233   3.233   3.233   3.233   3.233
    58.75    3.233   3.233   3.233   3.233   3.233   3.233   3.233   3.233   3.233   3.233   3.233   3.233   3.233   3.233   3.233   3.233   3.233
    48.44    3.233   3.233   3.233   3.233   3.233   3.233   3.233   3.233   3.233   3.233   3.233   3.233   3.233   3.233   3.233   3.233   3.233
    38.12    3.233   3.233   3.233   3.233   3.233   3.233   3.233   3.233   3.233   3.233   3.233   3.233   3.233   3.233   3.233   3.233   3.233
    27.81    3.233   3.233   3.233   3.233   3.233   3.233   3.233   3.233   3.233   3.233   3.233   3.233   3.233   3.233   3.233   3.233   3.233
    17.50    3.233   3.233   3.233   3.233   3.233   3.233   3.233   3.233   3.233   3.233   3.233   3.233   3.233   3.233   3.233   3.233   3.233

   Height   Standard deviation at grid points for the w component:
   182.50    2.002   2.002   2.002   2.002   2.002   2.002   2.002   2.002   2.002   2.002   2.002   2.002   2.002   2.002   2.002   2.002   2.002
   172.19    2.002   2.002   2.002   2.002   2.002   2.002   2.002   2.002   2.002   2.002   2.002   2.002   2.002   2.002   2.002   2.002   2.002
   161.88    2.002   2.002   2.002   2.002   2.002   2.002   2.002   2.002   2.002   2.002   2.002   2.002   2.002   2.002   2.002   2.002   2.002
   151.56    2.002   2.002   2.002   2.002   2.002   2.002   2.002   2.002   2.002   2.002   2.002   2.002   2.002   2.002   2.002   2.002   2.002
   141.25    2.002   2.002   2.002   2.002   2.002   2.002   2.002   2.002   2.002   2.002   2.002   2.002   2.002   2.002   2.002   2.002   2.002
   130.94    2.002   2.002   2.002   2.002   2.002   2.002   2.002   2.002   2.002   2.002   2.002   2.002   2.002   2.002   2.002   2.002   2.002
   120.62    2.002   2.002   2.002   2.002   2.002   2.002   2.002   2.002   2.002   2.002   2.002   2.002   2.002   2.002   2.002   2.002   2.002
   110.31    2.002   2.002   2.002   2.002   2.002   2.002   2.002   2.002   2.002   2.002   2.002   2.002   2.002   2.002   2.002   2.002   2.002
   100.00    2.002   2.002   2.002   2.002   2.002   2.002   2.002   2.002   2.002   2.002   2.002   2.002   2.002   2.002   2.002   2.002   2.002
    89.69    2.002   2.002   2.002   2.002   2.002   2.002   2.002   2.002   2.002   2.002   2.002   2.002   2.002   2.002   2.002   2.002   2.002
    79.38    2.002   2.002   2.002   2.002   2.002   2.002   2.002   2.002   2.002   2.002   2.002   2.002   2.002   2.002   2.002   2.002   2.002
    69.06    2.002   2.002   2.002   2.002   2.002   2.002   2.002   2.002   2.002   2.002   2.002   2.002   2.002   2.002   2.002   2.002   2.002
    58.75    2.002   2.002   2.002   2.002   2.002   2.002   2.002   2.002   2.002   2.002   2.002   2.002   2.002   2.002   2.002   2.002   2.002
    48.44    2.002   2.002   2.002   2.002   2.002   2.002   2.002   2.002   2.002   2.002   2.002   2.002   2.002   2.002   2.002   2.002   2.002
    38.12    2.002   2.002   2.002   2.002   2.002   2.002   2.002   2.002   2.002   2.002   2.002   2.002   2.002   2.002   2.002   2.002   2.002
    27.81    2.002   2.002   2.002   2.002   2.002   2.002   2.002   2.002   2.002   2.002   2.002   2.002   2.002   2.002   2.002   2.002   2.002
    17.50    2.002   2.002   2.002   2.002   2.002   2.002   2.002   2.002   2.002   2.002   2.002   2.002   2.002   2.002   2.002   2.002   2.002

   Mean standard deviation across all grid points:
      u component:    4.163 m/s
      v component:    3.233 m/s
      w component:    2.002 m/s


U-component (X) statistics from the hub grid point:

   Mean =  19.0000 m/s
   TI   =  21.6686 %


Normalizing Parameters for Binary Data (approximate statistics):

   UBar  =  19.0000 m/s
   TI(u) =  21.6686 %
   TI(v) =  17.0148 %
   TI(w) =  10.5382 %

   Height Offset =   0.0000 m
   Grid Base     =  17.5000 m

Nyquist frequency of turbulent wind field =        10.000 Hz


Processing complete.  6.8906 CPU seconds used.
