
This summary file was generated by TurbSim (v1.06.00, 21-Sep-2012) on 21-Dec-2025 at 12:08:49.


Runtime Options:

   2567890  Random seed #1
    RANLUX  Type of random number generator
         F  Output binary HH turbulence parameters?
         F  Output formatted turbulence parameters?
         F  Output AeroDyn HH files?
         F  Output AeroDyn FF files?
         T  Output BLADED FF files?
         T  Output tower data?
         F  Output formatted FF files?
         F  Output coherent turbulence time step file?
         T  Clockwise rotation when looking downwind?
 2 -   ALL  IEC turbulence models scaled to exact specified standard deviation


Turbine/Model Specifications:

        17  Vertical grid-point matrix dimension
        17  Horizontal grid-point matrix dimension
     0.050  Time step [seconds]
    60.000  Analysis time [seconds]
   660.000  Usable output time [seconds]
   100.000  Hub height [m]
   165.000  Grid height [m]
   165.000  Grid width [m]
     0.000  Vertical flow angle [degrees]
     0.000  Horizontal flow angle [degrees]


Meteorological Boundary Conditions:

    IECKAI  IEC Kaimal spectral model
         1  IEC standard: IEC 61400-1 Ed. 3: 2005
         A  IEC turbulence characteristic
       NTM  IEC Normal Turbulence Model
       N/A  IEC Extreme Turbulence Model (ETM) "c" parameter [m/s]
       IEC  Wind profile type
   100.000  Reference height [m]
    23.000  Reference wind speed [m/s]
       N/A  Jet height [m]
     0.200  Power law exponent
     0.030  Surface roughness length [m]


You have requested that the following file(s) be generated:

   23ms_2A.wnd (AeroDyn/BLADED full-field wnd file)
   23ms_2A.twr (Binary tower twr file)


Turbulence Simulation Scaling Parameter Summary:

   Turbulence model used                            =  IEC Kaimal
   Turbulence characteristic                        =  A
   IEC turbulence type                              =  Normal Turbulence Model
   IEC standard                                     =  IEC 61400-1 Ed. 3: 2005
   Mean wind speed at hub height                    =   23.000 m/s
   Expected value of turbulence intensity at 15 m/s =   16.000%
   Characteristic value of standard deviation       =    3.656 m/s
   Turbulence scale                                 =   42.000 m
   u-component integral scale                       =  340.200 m
   Coherency scale                                  =  340.200 m
   Characteristic value of hub turbulence intensity =   15.896%
   Gradient Richardson number                       =    0.000

   Wind profile type                                =  Power law on rotor disk, logarithmic elsewhere
   Power law exponent                               =    0.200
   Mean shear across rotor disk                     =    0.059 (m/s)/m
   Assumed rotor diameter                           =  165.000 m
   Surface roughness length                         =    0.030 m

   Number of time steps in the FFT                  =    13376
   Number of time steps output                      =    13344


Mean Flow Angles:

   Vertical   =   0.0 degrees
   Horizontal =   0.0 degrees

Mean Wind Speed Profile:

   Height    Wind Speed   Horizontal Angle  U-comp (X)   V-comp (Y)   W-comp (Z)
     (m)        (m/s)         (degrees)       (m/s)        (m/s)        (m/s)   
   ------    ----------   ----------------  ----------   ----------   ----------
    182.5       25.94            0.00         25.94         0.00         0.00
    172.2       25.64            0.00         25.64         0.00         0.00
    161.9       25.33            0.00         25.33         0.00         0.00
    151.6       24.99            0.00         24.99         0.00         0.00
    141.2       24.64            0.00         24.64         0.00         0.00
    130.9       24.27            0.00         24.27         0.00         0.00
    120.6       23.88            0.00         23.88         0.00         0.00
    110.3       23.46            0.00         23.46         0.00         0.00
    100.0       23.00            0.00         23.00         0.00         0.00
     89.7       22.50            0.00         22.50         0.00         0.00
     79.4       21.96            0.00         21.96         0.00         0.00
     69.1       21.36            0.00         21.36         0.00         0.00
     58.8       20.68            0.00         20.68         0.00         0.00
     48.4       19.90            0.00         19.90         0.00         0.00
     38.1       18.97            0.00         18.97         0.00         0.00
     27.8       17.81            0.00         17.81         0.00         0.00
     17.5       16.23            0.00         16.23         0.00         0.00
      7.2       15.53            0.00         15.53         0.00         0.00


Harvested Random Seeds after Generation of the Random Numbers:

     54064120 K1
            0 K2


Scaling statistics from the hub grid point:

  Component  Target Sigma (m/s)  Simulated Sigma (m/s)  Scaling Factor
  ---------  ------------------  ---------------------  --------------
     u'             3.656                3.214                1.138
     v'             2.925                2.870                1.019
     w'             1.828                1.772                1.032


Hub-Height Simulated Turbulence Statistical Summary:

   Type of Wind        Min (m/s)   Mean (m/s)    Max (m/s)  Sigma (m/s)       TI (%)
   ----------------    ---------   ----------    ---------  -----------       ------
   Longitudinal (u)        10.92        23.00        35.20        3.656       15.896
   Lateral (v)            -12.28         0.00        10.31        2.925       12.717
   Vertical (w)            -6.70         0.00         6.66        1.828        7.948
   U component             10.92        23.00        35.20        3.656       15.896
   V component            -12.28         0.00        10.31        2.925       12.717
   W component             -6.70         0.00         6.66        1.828        7.948
   Horizontal (U&V)        11.08        23.19        35.32        3.634       15.671
   Total                   11.19        23.26        35.34        3.631       15.610

                       Min Reynolds     Mean Reynolds    Max Reynolds    Correlation
   Product             Stress (m/s)^2   Stress (m/s)^2   Stress (m/s)^2  Coefficient
   ----------------    --------------   --------------   --------------  -----------
   u'w'                    -52.022            -0.265            42.602        -0.040
   u'v'                    -52.429             0.121            71.768         0.011
   v'w'                    -32.831             0.233            32.833         0.044


   Friction Velocity (Ustar)  =      0.515 m/s
   Maximum Instantaneous TKE  =     84.613 (m/s)^2
   Maximum Instantaneous CTKE =     36.535 (m/s)^2


Grid Point Variance Summary:

   Y-coord  -82.50  -72.19  -61.88  -51.56  -41.25  -30.94  -20.62  -10.31    0.00   10.31   20.62   30.94   41.25   51.56   61.88   72.19   82.50

   Height   Standard deviation at grid points for the u component:
   182.50    3.656   3.656   3.656   3.656   3.656   3.656   3.656   3.656   3.656   3.656   3.656   3.656   3.656   3.656   3.656   3.656   3.656
   172.19    3.656   3.656   3.656   3.656   3.656   3.656   3.656   3.656   3.656   3.656   3.656   3.656   3.656   3.656   3.656   3.656   3.656
   161.88    3.656   3.656   3.656   3.656   3.656   3.656   3.656   3.656   3.656   3.656   3.656   3.656   3.656   3.656   3.656   3.656   3.656
   151.56    3.656   3.656   3.656   3.656   3.656   3.656   3.656   3.656   3.656   3.656   3.656   3.656   3.656   3.656   3.656   3.656   3.656
   141.25    3.656   3.656   3.656   3.656   3.656   3.656   3.656   3.656   3.656   3.656   3.656   3.656   3.656   3.656   3.656   3.656   3.656
   130.94    3.656   3.656   3.656   3.656   3.656   3.656   3.656   3.656   3.656   3.656   3.656   3.656   3.656   3.656   3.656   3.656   3.656
   120.62    3.656   3.656   3.656   3.656   3.656   3.656   3.656   3.656   3.656   3.656   3.656   3.656   3.656   3.656   3.656   3.656   3.656
   110.31    3.656   3.656   3.656   3.656   3.656   3.656   3.656   3.656   3.656   3.656   3.656   3.656   3.656   3.656   3.656   3.656   3.656
   100.00    3.656   3.656   3.656   3.656   3.656   3.656   3.656   3.656   3.656   3.656   3.656   3.656   3.656   3.656   3.656   3.656   3.656
    89.69    3.656   3.656   3.656   3.656   3.656   3.656   3.656   3.656   3.656   3.656   3.656   3.656   3.656   3.656   3.656   3.656   3.656
    79.38    3.656   3.656   3.656   3.656   3.656   3.656   3.656   3.656   3.656   3.656   3.656   3.656   3.656   3.656   3.656   3.656   3.656
    69.06    3.656   3.656   3.656   3.656   3.656   3.656   3.656   3.656   3.656   3.656   3.656   3.656   3.656   3.656   3.656   3.656   3.656
    58.75    3.656   3.656   3.656   3.656   3.656   3.656   3.656   3.656   3.656   3.656   3.656   3.656   3.656   3.656   3.656   3.656   3.656
    48.44    3.656   3.656   3.656   3.656   3.656   3.656   3.656   3.656   3.656   3.656   3.656   3.656   3.656   3.656   3.656   3.656   3.656
    38.12    3.656   3.656   3.656   3.656   3.656   3.656   3.656   3.656   3.656   3.656   3.656   3.656   3.656   3.656   3.656   3.656   3.656
    27.81    3.656   3.656   3.656   3.656   3.656   3.656   3.656   3.656   3.656   3.656   3.656   3.656   3.656   3.656   3.656   3.656   3.656
    17.50    3.656   3.656   3.656   3.656   3.656   3.656   3.656   3.656   3.656   3.656   3.656   3.656   3.656   3.656   3.656   3.656   3.656

   Height   Standard deviation at grid points for the v component:
   182.50    2.925   2.925   2.925   2.925   2.925   2.925   2.925   2.925   2.925   2.925   2.925   2.925   2.925   2.925   2.925   2.925   2.925
   172.19    2.925   2.925   2.925   2.925   2.925   2.925   2.925   2.925   2.925   2.925   2.925   2.925   2.925   2.925   2.925   2.925   2.925
   161.88    2.925   2.925   2.925   2.925   2.925   2.925   2.925   2.925   2.925   2.925   2.925   2.925   2.925   2.925   2.925   2.925   2.925
   151.56    2.925   2.925   2.925   2.925   2.925   2.925   2.925   2.925   2.925   2.925   2.925   2.925   2.925   2.925   2.925   2.925   2.925
   141.25    2.925   2.925   2.925   2.925   2.925   2.925   2.925   2.925   2.925   2.925   2.925   2.925   2.925   2.925   2.925   2.925   2.925
   130.94    2.925   2.925   2.925   2.925   2.925   2.925   2.925   2.925   2.925   2.925   2.925   2.925   2.925   2.925   2.925   2.925   2.925
   120.62    2.925   2.925   2.925   2.925   2.925   2.925   2.925   2.925   2.925   2.925   2.925   2.925   2.925   2.925   2.925   2.925   2.925
   110.31    2.925   2.925   2.925   2.925   2.925   2.925   2.925   2.925   2.925   2.925   2.925   2.925   2.925   2.925   2.925   2.925   2.925
   100.00    2.925   2.925   2.925   2.925   2.925   2.925   2.925   2.925   2.925   2.925   2.925   2.925   2.925   2.925   2.925   2.925   2.925
    89.69    2.925   2.925   2.925   2.925   2.925   2.925   2.925   2.925   2.925   2.925   2.925   2.925   2.925   2.925   2.925   2.925   2.925
    79.38    2.925   2.925   2.925   2.925   2.925   2.925   2.925   2.925   2.925   2.925   2.925   2.925   2.925   2.925   2.925   2.925   2.925
    69.06    2.925   2.925   2.925   2.925   2.925   2.925   2.925   2.925   2.925   2.925   2.925   2.925   2.925   2.925   2.925   2.925   2.925
    58.75    2.925   2.925   2.925   2.925   2.925   2.925   2.925   2.925   2.925   2.925   2.925   2.925   2.925   2.925   2.925   2.925   2.925
    48.44    2.925   2.925   2.925   2.925   2.925   2.925   2.925   2.925   2.925   2.925   2.925   2.925   2.925   2.925   2.925   2.925   2.925
    38.12    2.925   2.925   2.925   2.925   2.925   2.925   2.925   2.925   2.925   2.925   2.925   2.925   2.925   2.925   2.925   2.925   2.925
    27.81    2.925   2.925   2.925   2.925   2.925   2.925   2.925   2.925   2.925   2.925   2.925   2.925   2.925   2.925   2.925   2.925   2.925
    17.50    2.925   2.925   2.925   2.925   2.925   2.925   2.925   2.925   2.925   2.925   2.925   2.925   2.925   2.925   2.925   2.925   2.925

   Height   Standard deviation at grid points for the w component:
   182.50    1.828   1.828   1.828   1.828   1.828   1.828   1.828   1.828   1.828   1.828   1.828   1.828   1.828   1.828   1.828   1.828   1.828
   172.19    1.828   1.828   1.828   1.828   1.828   1.828   1.828   1.828   1.828   1.828   1.828   1.828   1.828   1.828   1.828   1.828   1.828
   161.88    1.828   1.828   1.828   1.828   1.828   1.828   1.828   1.828   1.828   1.828   1.828   1.828   1.828   1.828   1.828   1.828   1.828
   151.56    1.828   1.828   1.828   1.828   1.828   1.828   1.828   1.828   1.828   1.828   1.828   1.828   1.828   1.828   1.828   1.828   1.828
   141.25    1.828   1.828   1.828   1.828   1.828   1.828   1.828   1.828   1.828   1.828   1.828   1.828   1.828   1.828   1.828   1.828   1.828
   130.94    1.828   1.828   1.828   1.828   1.828   1.828   1.828   1.828   1.828   1.828   1.828   1.828   1.828   1.828   1.828   1.828   1.828
   120.62    1.828   1.828   1.828   1.828   1.828   1.828   1.828   1.828   1.828   1.828   1.828   1.828   1.828   1.828   1.828   1.828   1.828
   110.31    1.828   1.828   1.828   1.828   1.828   1.828   1.828   1.828   1.828   1.828   1.828   1.828   1.828   1.828   1.828   1.828   1.828
   100.00    1.828   1.828   1.828   1.828   1.828   1.828   1.828   1.828   1.828   1.828   1.828   1.828   1.828   1.828   1.828   1.828   1.828
    89.69    1.828   1.828   1.828   1.828   1.828   1.828   1.828   1.828   1.828   1.828   1.828   1.828   1.828   1.828   1.828   1.828   1.828
    79.38    1.828   1.828   1.828   1.828   1.828   1.828   1.828   1.828   1.828   1.828   1.828   1.828   1.828   1.828   1.828   1.828   1.828
    69.06    1.828   1.828   1.828   1.828   1.828   1.828   1.828   1.828   1.828   1.828   1.828   1.828   1.828   1.828   1.828   1.828   1.828
    58.75    1.828   1.828   1.828   1.828   1.828   1.828   1.828   1.828   1.828   1.828   1.828   1.828   1.828   1.828   1.828   1.828   1.828
    48.44    1.828   1.828   1.828   1.828   1.828   1.828   1.828   1.828   1.828   1.828   1.828   1.828   1.828   1.828   1.828   1.828   1.828
    38.12    1.828   1.828   1.828   1.828   1.828   1.828   1.828   1.828   1.828   1.828   1.828   1.828   1.828   1.828   1.828   1.828   1.828
    27.81    1.828   1.828   1.828   1.828   1.828   1.828   1.828   1.828   1.828   1.828   1.828   1.828   1.828   1.828   1.828   1.828   1.828
    17.50    1.828   1.828   1.828   1.828   1.828   1.828   1.828   1.828   1.828   1.828   1.828   1.828   1.828   1.828   1.828   1.828   1.828

   Mean standard deviation across all grid points:
      u component:    3.656 m/s
      v component:    2.925 m/s
      w component:    1.828 m/s


U-component (X) statistics from the hub grid point:

   Mean =  23.0000 m/s
   TI   =  15.8957 %


Normalizing Parameters for Binary Data (approximate statistics):

   UBar  =  23.0000 m/s
   TI(u) =  15.8957 %
   TI(v) =  12.7165 %
   TI(w) =   7.9478 %

   Height Offset =   0.0000 m
   Grid Base     =  17.5000 m

Nyquist frequency of turbulent wind field =        10.000 Hz


Processing complete.  6.1406 CPU seconds used.
