
This summary file was generated by TurbSim (v1.06.00, 21-Sep-2012) on 13-Dec-2025 at 22:26:35.


Runtime Options:

   7867861  Random seed #1
    RANLUX  Type of random number generator
         F  Output binary HH turbulence parameters?
         F  Output formatted turbulence parameters?
         F  Output AeroDyn HH files?
         F  Output AeroDyn FF files?
         T  Output BLADED FF files?
         T  Output tower data?
         F  Output formatted FF files?
         F  Output coherent turbulence time step file?
         T  Clockwise rotation when looking downwind?
 0 -  NONE  IEC turbulence models scaled to exact specified standard deviation


Turbine/Model Specifications:

        17  Vertical grid-point matrix dimension
        17  Horizontal grid-point matrix dimension
     0.050  Time step [seconds]
    60.000  Analysis time [seconds]
   660.000  Usable output time [seconds]
   100.000  Hub height [m]
   165.000  Grid height [m]
   165.000  Grid width [m]
     0.000  Vertical flow angle [degrees]
     0.000  Horizontal flow angle [degrees]


Meteorological Boundary Conditions:

    IECKAI  IEC Kaimal spectral model
         1  IEC standard: IEC 61400-1 Ed. 3: 2005
         A  IEC turbulence characteristic
      2ETM  IEC Extreme Turbulence Model
     2.000  IEC Extreme Turbulence Model (ETM) "c" parameter [m/s]
       IEC  Wind profile type
   100.000  Reference height [m]
    19.000  Reference wind speed [m/s]
       N/A  Jet height [m]
     0.200  Power law exponent
     0.030  Surface roughness length [m]


You have requested that the following file(s) be generated:

   19ms_2A.wnd (AeroDyn/BLADED full-field wnd file)
   19ms_2A.twr (Binary tower twr file)


Turbulence Simulation Scaling Parameter Summary:

   Turbulence model used                            =  IEC Kaimal
   Turbulence characteristic                        =  2A
   IEC turbulence type                              =  Extreme Turbulence Model
   Reference wind speed average over 10 minutes     =   42.500 m/s
   Annual wind speed average at hub height          =    8.500 m/s
   IEC standard                                     =  IEC 61400-1 Ed. 3: 2005
   Mean wind speed at hub height                    =   19.000 m/s
   Expected value of turbulence intensity at 15 m/s =   16.000%
   Characteristic value of standard deviation       =    4.119 m/s
   Turbulence scale                                 =   42.000 m
   u-component integral scale                       =  340.200 m
   Coherency scale                                  =  340.200 m
   Characteristic value of hub turbulence intensity =   21.677%
   Gradient Richardson number                       =    0.000

   Wind profile type                                =  Power law on rotor disk, logarithmic elsewhere
   Power law exponent                               =    0.200
   Mean shear across rotor disk                     =    0.049 (m/s)/m
   Assumed rotor diameter                           =  165.000 m
   Surface roughness length                         =    0.030 m

   Number of time steps in the FFT                  =    13376
   Number of time steps output                      =    13374


Mean Flow Angles:

   Vertical   =   0.0 degrees
   Horizontal =   0.0 degrees

Mean Wind Speed Profile:

   Height    Wind Speed   Horizontal Angle  U-comp (X)   V-comp (Y)   W-comp (Z)
     (m)        (m/s)         (degrees)       (m/s)        (m/s)        (m/s)   
   ------    ----------   ----------------  ----------   ----------   ----------
    182.5       21.43            0.00         21.43         0.00         0.00
    172.2       21.18            0.00         21.18         0.00         0.00
    161.9       20.92            0.00         20.92         0.00         0.00
    151.6       20.65            0.00         20.65         0.00         0.00
    141.2       20.36            0.00         20.36         0.00         0.00
    130.9       20.05            0.00         20.05         0.00         0.00
    120.6       19.73            0.00         19.73         0.00         0.00
    110.3       19.38            0.00         19.38         0.00         0.00
    100.0       19.00            0.00         19.00         0.00         0.00
     89.7       18.59            0.00         18.59         0.00         0.00
     79.4       18.14            0.00         18.14         0.00         0.00
     69.1       17.64            0.00         17.64         0.00         0.00
     58.8       17.08            0.00         17.08         0.00         0.00
     48.4       16.44            0.00         16.44         0.00         0.00
     38.1       15.67            0.00         15.67         0.00         0.00
     27.8       14.71            0.00         14.71         0.00         0.00
     17.5       13.41            0.00         13.41         0.00         0.00
      7.2       12.83            0.00         12.83         0.00         0.00


Harvested Random Seeds after Generation of the Random Numbers:

     54064120 K1
            0 K2


Hub-Height Simulated Turbulence Statistical Summary:

   Type of Wind        Min (m/s)   Mean (m/s)    Max (m/s)  Sigma (m/s)       TI (%)
   ----------------    ---------   ----------    ---------  -----------       ------
   Longitudinal (u)         4.97        19.00        40.48        4.825       25.393
   Lateral (v)            -12.00         0.00        11.43        3.233       17.015
   Vertical (w)            -8.16         0.00         8.75        2.002       10.538
   U component              4.97        19.00        40.48        4.825       25.393
   V component            -12.00         0.00        11.43        3.233       17.015
   W component             -8.16         0.00         8.75        2.002       10.538
   Horizontal (U&V)         5.52        19.28        40.56        4.793       24.858
   Total                    6.33        19.39        40.58        4.756       24.523

                       Min Reynolds     Mean Reynolds    Max Reynolds    Correlation
   Product             Stress (m/s)^2   Stress (m/s)^2   Stress (m/s)^2  Coefficient
   ----------------    --------------   --------------   --------------  -----------
   u'w'                    -75.247             0.252            86.218         0.026
   u'v'                   -113.343            -2.161            87.253        -0.139
   v'w'                    -39.105            -0.575            55.985        -0.089


   Friction Velocity (Ustar)  =      0.502 m/s
   Maximum Instantaneous TKE  =    234.617 (m/s)^2
   Maximum Instantaneous CTKE =     72.282 (m/s)^2


Grid Point Variance Summary:

   Y-coord  -82.50  -72.19  -61.88  -51.56  -41.25  -30.94  -20.62  -10.31    0.00   10.31   20.62   30.94   41.25   51.56   61.88   72.19   82.50

   Height   Standard deviation at grid points for the u component:
   182.50    4.947   4.767   4.517   4.503   4.496   4.471   4.859   4.973   4.729   4.574   4.281   3.983   3.817   3.984   4.236   3.962   3.927
   172.19    5.079   4.791   4.691   4.649   4.680   4.570   4.863   4.904   4.890   4.625   4.302   4.267   4.088   4.038   3.912   3.986   3.908
   161.88    4.734   4.691   4.650   4.604   4.745   4.821   4.735   4.863   4.690   4.587   4.721   4.633   4.193   4.144   3.915   3.912   3.755
   151.56    4.909   4.590   4.806   4.682   4.839   4.787   5.033   4.720   4.765   4.794   4.658   4.602   4.128   4.100   4.101   4.273   3.790
   141.25    5.101   4.925   4.862   4.851   5.068   4.989   4.992   5.144   4.956   4.909   4.838   4.568   4.374   4.440   4.264   4.389   4.270
   130.94    5.351   5.372   5.183   5.069   4.874   5.321   5.103   5.036   4.790   4.855   4.637   4.570   4.635   4.541   4.639   4.535   4.423
   120.62    5.212   5.247   5.225   4.767   4.879   5.092   5.153   5.023   4.788   4.774   4.490   4.264   4.316   4.281   4.502   4.552   4.478
   110.31    4.924   5.361   5.121   4.847   4.808   5.015   5.246   5.086   4.951   4.814   4.450   4.412   4.195   4.215   4.428   4.492   4.020
   100.00    4.673   4.868   5.024   4.817   4.682   4.916   5.036   4.766   4.825   4.814   4.755   4.257   4.179   4.442   4.510   4.571   4.246
    89.69    4.673   4.624   4.854   4.918   4.746   4.717   4.871   4.808   4.758   4.694   4.411   4.628   4.497   4.518   4.347   4.420   4.325
    79.38    4.467   4.506   4.469   4.669   4.903   4.624   4.735   4.557   4.465   4.562   4.475   4.593   4.763   4.418   4.328   4.528   4.677
    69.06    4.555   4.147   4.288   4.352   4.666   4.542   4.461   4.402   4.306   4.176   4.357   4.258   4.451   4.547   4.255   4.537   4.589
    58.75    4.048   4.061   3.949   3.975   4.064   4.117   4.064   4.293   4.553   4.478   4.242   4.335   4.374   4.369   4.289   4.404   4.394
    48.44    4.002   3.885   3.709   3.870   3.745   3.974   4.052   4.508   4.690   4.666   4.055   4.148   3.958   3.869   4.075   4.332   4.195
    38.12    4.012   3.991   3.686   3.881   3.815   4.074   4.027   4.329   4.494   4.395   4.333   4.277   4.003   4.101   4.199   4.374   4.308
    27.81    3.808   4.202   3.961   3.776   3.619   3.808   3.771   3.733   4.037   4.144   3.940   3.957   4.158   4.150   4.468   4.357   4.205
    17.50    3.992   4.052   4.098   4.047   3.793   3.663   3.739   3.859   4.104   3.826   3.659   3.815   3.903   4.204   4.326   4.160   4.277

   Height   Standard deviation at grid points for the v component:
   182.50    3.233   3.233   3.233   3.233   3.233   3.233   3.233   3.233   3.233   3.233   3.233   3.233   3.233   3.233   3.233   3.233   3.233
   172.19    3.233   3.233   3.233   3.233   3.233   3.233   3.233   3.233   3.233   3.233   3.233   3.233   3.233   3.233   3.233   3.233   3.233
   161.88    3.233   3.233   3.233   3.233   3.233   3.233   3.233   3.233   3.233   3.233   3.233   3.233   3.233   3.233   3.233   3.233   3.233
   151.56    3.233   3.233   3.233   3.233   3.233   3.233   3.233   3.233   3.233   3.233   3.233   3.233   3.233   3.233   3.233   3.233   3.233
   141.25    3.233   3.233   3.233   3.233   3.233   3.233   3.233   3.233   3.233   3.233   3.233   3.233   3.233   3.233   3.233   3.233   3.233
   130.94    3.233   3.233   3.233   3.233   3.233   3.233   3.233   3.233   3.233   3.233   3.233   3.233   3.233   3.233   3.233   3.233   3.233
   120.62    3.233   3.233   3.233   3.233   3.233   3.233   3.233   3.233   3.233   3.233   3.233   3.233   3.233   3.233   3.233   3.233   3.233
   110.31    3.233   3.233   3.233   3.233   3.233   3.233   3.233   3.233   3.233   3.233   3.233   3.233   3.233   3.233   3.233   3.233   3.233
   100.00    3.233   3.233   3.233   3.233   3.233   3.233   3.233   3.233   3.233   3.233   3.233   3.233   3.233   3.233   3.233   3.233   3.233
    89.69    3.233   3.233   3.233   3.233   3.233   3.233   3.233   3.233   3.233   3.233   3.233   3.233   3.233   3.233   3.233   3.233   3.233
    79.38    3.233   3.233   3.233   3.233   3.233   3.233   3.233   3.233   3.233   3.233   3.233   3.233   3.233   3.233   3.233   3.233   3.233
    69.06    3.233   3.233   3.233   3.233   3.233   3.233   3.233   3.233   3.233   3.233   3.233   3.233   3.233   3.233   3.233   3.233   3.233
    58.75    3.233   3.233   3.233   3.233   3.233   3.233   3.233   3.233   3.233   3.233   3.233   3.233   3.233   3.233   3.233   3.233   3.233
    48.44    3.233   3.233   3.233   3.233   3.233   3.233   3.233   3.233   3.233   3.233   3.233   3.233   3.233   3.233   3.233   3.233   3.233
    38.12    3.233   3.233   3.233   3.233   3.233   3.233   3.233   3.233   3.233   3.233   3.233   3.233   3.233   3.233   3.233   3.233   3.233
    27.81    3.233   3.233   3.233   3.233   3.233   3.233   3.233   3.233   3.233   3.233   3.233   3.233   3.233   3.233   3.233   3.233   3.233
    17.50    3.233   3.233   3.233   3.233   3.233   3.233   3.233   3.233   3.233   3.233   3.233   3.233   3.233   3.233   3.233   3.233   3.233

   Height   Standard deviation at grid points for the w component:
   182.50    2.002   2.002   2.002   2.002   2.002   2.002   2.002   2.002   2.002   2.002   2.002   2.002   2.002   2.002   2.002   2.002   2.002
   172.19    2.002   2.002   2.002   2.002   2.002   2.002   2.002   2.002   2.002   2.002   2.002   2.002   2.002   2.002   2.002   2.002   2.002
   161.88    2.002   2.002   2.002   2.002   2.002   2.002   2.002   2.002   2.002   2.002   2.002   2.002   2.002   2.002   2.002   2.002   2.002
   151.56    2.002   2.002   2.002   2.002   2.002   2.002   2.002   2.002   2.002   2.002   2.002   2.002   2.002   2.002   2.002   2.002   2.002
   141.25    2.002   2.002   2.002   2.002   2.002   2.002   2.002   2.002   2.002   2.002   2.002   2.002   2.002   2.002   2.002   2.002   2.002
   130.94    2.002   2.002   2.002   2.002   2.002   2.002   2.002   2.002   2.002   2.002   2.002   2.002   2.002   2.002   2.002   2.002   2.002
   120.62    2.002   2.002   2.002   2.002   2.002   2.002   2.002   2.002   2.002   2.002   2.002   2.002   2.002   2.002   2.002   2.002   2.002
   110.31    2.002   2.002   2.002   2.002   2.002   2.002   2.002   2.002   2.002   2.002   2.002   2.002   2.002   2.002   2.002   2.002   2.002
   100.00    2.002   2.002   2.002   2.002   2.002   2.002   2.002   2.002   2.002   2.002   2.002   2.002   2.002   2.002   2.002   2.002   2.002
    89.69    2.002   2.002   2.002   2.002   2.002   2.002   2.002   2.002   2.002   2.002   2.002   2.002   2.002   2.002   2.002   2.002   2.002
    79.38    2.002   2.002   2.002   2.002   2.002   2.002   2.002   2.002   2.002   2.002   2.002   2.002   2.002   2.002   2.002   2.002   2.002
    69.06    2.002   2.002   2.002   2.002   2.002   2.002   2.002   2.002   2.002   2.002   2.002   2.002   2.002   2.002   2.002   2.002   2.002
    58.75    2.002   2.002   2.002   2.002   2.002   2.002   2.002   2.002   2.002   2.002   2.002   2.002   2.002   2.002   2.002   2.002   2.002
    48.44    2.002   2.002   2.002   2.002   2.002   2.002   2.002   2.002   2.002   2.002   2.002   2.002   2.002   2.002   2.002   2.002   2.002
    38.12    2.002   2.002   2.002   2.002   2.002   2.002   2.002   2.002   2.002   2.002   2.002   2.002   2.002   2.002   2.002   2.002   2.002
    27.81    2.002   2.002   2.002   2.002   2.002   2.002   2.002   2.002   2.002   2.002   2.002   2.002   2.002   2.002   2.002   2.002   2.002
    17.50    2.002   2.002   2.002   2.002   2.002   2.002   2.002   2.002   2.002   2.002   2.002   2.002   2.002   2.002   2.002   2.002   2.002

   Mean standard deviation across all grid points:
      u component:    4.460 m/s
      v component:    3.233 m/s
      w component:    2.002 m/s


U-component (X) statistics from the hub grid point:

   Mean =  19.0000 m/s
   TI   =  25.3934 %


Normalizing Parameters for Binary Data (approximate statistics):

   UBar  =  19.0000 m/s
   TI(u) =  25.3934 %
   TI(v) =  17.0148 %
   TI(w) =  10.5382 %

   Height Offset =   0.0000 m
   Grid Base     =  17.5000 m

Nyquist frequency of turbulent wind field =        10.000 Hz


Processing complete.  7.1562 CPU seconds used.
