
This summary file was generated by TurbSim (v1.06.00, 21-Sep-2012) on 13-Dec-2025 at 22:24:16.


Runtime Options:

   1122334  Random seed #1
    RANLUX  Type of random number generator
         F  Output binary HH turbulence parameters?
         F  Output formatted turbulence parameters?
         F  Output AeroDyn HH files?
         F  Output AeroDyn FF files?
         T  Output BLADED FF files?
         T  Output tower data?
         F  Output formatted FF files?
         F  Output coherent turbulence time step file?
         T  Clockwise rotation when looking downwind?
 0 -  NONE  IEC turbulence models scaled to exact specified standard deviation


Turbine/Model Specifications:

        17  Vertical grid-point matrix dimension
        17  Horizontal grid-point matrix dimension
     0.050  Time step [seconds]
    60.000  Analysis time [seconds]
   660.000  Usable output time [seconds]
   100.000  Hub height [m]
   165.000  Grid height [m]
   165.000  Grid width [m]
     0.000  Vertical flow angle [degrees]
     0.000  Horizontal flow angle [degrees]


Meteorological Boundary Conditions:

    IECKAI  IEC Kaimal spectral model
         1  IEC standard: IEC 61400-1 Ed. 3: 2005
         A  IEC turbulence characteristic
      2ETM  IEC Extreme Turbulence Model
     2.000  IEC Extreme Turbulence Model (ETM) "c" parameter [m/s]
       IEC  Wind profile type
   100.000  Reference height [m]
    19.000  Reference wind speed [m/s]
       N/A  Jet height [m]
     0.200  Power law exponent
     0.030  Surface roughness length [m]


You have requested that the following file(s) be generated:

   19ms_2A.wnd (AeroDyn/BLADED full-field wnd file)
   19ms_2A.twr (Binary tower twr file)


Turbulence Simulation Scaling Parameter Summary:

   Turbulence model used                            =  IEC Kaimal
   Turbulence characteristic                        =  2A
   IEC turbulence type                              =  Extreme Turbulence Model
   Reference wind speed average over 10 minutes     =   42.500 m/s
   Annual wind speed average at hub height          =    8.500 m/s
   IEC standard                                     =  IEC 61400-1 Ed. 3: 2005
   Mean wind speed at hub height                    =   19.000 m/s
   Expected value of turbulence intensity at 15 m/s =   16.000%
   Characteristic value of standard deviation       =    4.119 m/s
   Turbulence scale                                 =   42.000 m
   u-component integral scale                       =  340.200 m
   Coherency scale                                  =  340.200 m
   Characteristic value of hub turbulence intensity =   21.677%
   Gradient Richardson number                       =    0.000

   Wind profile type                                =  Power law on rotor disk, logarithmic elsewhere
   Power law exponent                               =    0.200
   Mean shear across rotor disk                     =    0.049 (m/s)/m
   Assumed rotor diameter                           =  165.000 m
   Surface roughness length                         =    0.030 m

   Number of time steps in the FFT                  =    13376
   Number of time steps output                      =    13374


Mean Flow Angles:

   Vertical   =   0.0 degrees
   Horizontal =   0.0 degrees

Mean Wind Speed Profile:

   Height    Wind Speed   Horizontal Angle  U-comp (X)   V-comp (Y)   W-comp (Z)
     (m)        (m/s)         (degrees)       (m/s)        (m/s)        (m/s)   
   ------    ----------   ----------------  ----------   ----------   ----------
    182.5       21.43            0.00         21.43         0.00         0.00
    172.2       21.18            0.00         21.18         0.00         0.00
    161.9       20.92            0.00         20.92         0.00         0.00
    151.6       20.65            0.00         20.65         0.00         0.00
    141.2       20.36            0.00         20.36         0.00         0.00
    130.9       20.05            0.00         20.05         0.00         0.00
    120.6       19.73            0.00         19.73         0.00         0.00
    110.3       19.38            0.00         19.38         0.00         0.00
    100.0       19.00            0.00         19.00         0.00         0.00
     89.7       18.59            0.00         18.59         0.00         0.00
     79.4       18.14            0.00         18.14         0.00         0.00
     69.1       17.64            0.00         17.64         0.00         0.00
     58.8       17.08            0.00         17.08         0.00         0.00
     48.4       16.44            0.00         16.44         0.00         0.00
     38.1       15.67            0.00         15.67         0.00         0.00
     27.8       14.71            0.00         14.71         0.00         0.00
     17.5       13.41            0.00         13.41         0.00         0.00
      7.2       12.83            0.00         12.83         0.00         0.00


Harvested Random Seeds after Generation of the Random Numbers:

     54064120 K1
            0 K2


Hub-Height Simulated Turbulence Statistical Summary:

   Type of Wind        Min (m/s)   Mean (m/s)    Max (m/s)  Sigma (m/s)       TI (%)
   ----------------    ---------   ----------    ---------  -----------       ------
   Longitudinal (u)         5.03        19.00        31.59        4.400       23.159
   Lateral (v)            -11.42         0.00        10.29        3.233       17.015
   Vertical (w)            -7.18         0.00         7.29        2.002       10.538
   U component              5.03        19.00        31.59        4.400       23.159
   V component            -11.42         0.00        10.29        3.233       17.015
   W component             -7.18         0.00         7.29        2.002       10.538
   Horizontal (U&V)         5.79        19.28        31.68        4.374       22.689
   Total                    6.80        19.39        31.96        4.350       22.438

                       Min Reynolds     Mean Reynolds    Max Reynolds    Correlation
   Product             Stress (m/s)^2   Stress (m/s)^2   Stress (m/s)^2  Coefficient
   ----------------    --------------   --------------   --------------  -----------
   u'w'                    -52.249             0.546            85.712         0.062
   u'v'                    -91.195            -2.796            68.432        -0.197
   v'w'                    -50.182            -0.128            52.093        -0.020


   Friction Velocity (Ustar)  =      0.739 m/s
   Maximum Instantaneous TKE  =    109.867 (m/s)^2
   Maximum Instantaneous CTKE =     50.744 (m/s)^2


Grid Point Variance Summary:

   Y-coord  -82.50  -72.19  -61.88  -51.56  -41.25  -30.94  -20.62  -10.31    0.00   10.31   20.62   30.94   41.25   51.56   61.88   72.19   82.50

   Height   Standard deviation at grid points for the u component:
   182.50    3.983   3.804   3.923   3.772   3.896   3.924   4.346   4.347   4.385   4.445   4.435   4.427   4.631   4.621   4.134   4.185   3.881
   172.19    3.749   3.974   4.235   4.109   4.128   4.109   4.373   4.664   4.617   4.687   4.474   4.523   4.449   4.367   4.235   4.164   3.915
   161.88    3.953   4.003   4.422   4.203   4.356   4.381   4.440   4.674   4.705   4.686   4.541   4.511   4.450   4.369   4.190   4.294   4.048
   151.56    4.253   4.460   4.447   4.323   4.445   4.563   4.596   4.853   4.877   4.672   4.686   4.532   4.547   4.250   3.989   4.010   4.339
   141.25    4.340   4.532   4.485   4.269   4.477   4.615   4.520   4.901   4.917   4.808   4.744   4.596   4.576   4.088   4.146   4.230   4.037
   130.94    4.423   4.522   4.301   4.533   4.740   4.662   4.730   4.802   4.875   4.807   4.834   4.716   4.516   4.117   4.273   4.240   3.968
   120.62    4.163   4.065   4.179   4.470   4.316   4.445   4.628   4.577   4.581   4.685   4.569   4.434   4.562   4.556   4.020   3.805   4.016
   110.31    4.083   3.868   3.934   4.018   4.240   4.445   4.224   4.177   4.571   4.407   4.417   4.419   4.485   4.683   4.316   4.161   3.857
   100.00    3.924   3.885   3.811   3.963   4.245   4.312   4.201   4.240   4.400   4.357   4.562   4.771   4.685   4.801   4.538   4.226   3.891
    89.69    4.036   3.822   4.051   4.028   4.227   4.106   4.245   4.181   4.329   4.443   4.477   4.568   4.760   4.638   4.433   4.315   4.140
    79.38    4.013   3.974   3.947   4.193   4.226   4.022   3.938   4.291   4.246   4.348   4.344   4.671   4.673   4.476   4.170   4.222   4.167
    69.06    4.050   3.837   3.785   3.991   4.128   3.981   4.299   4.226   4.368   4.330   4.460   4.681   4.711   4.389   4.422   4.153   4.180
    58.75    4.302   3.912   3.858   3.891   3.765   3.872   3.952   4.025   4.033   4.068   4.255   4.390   4.579   4.628   4.563   4.299   4.230
    48.44    4.057   4.080   3.924   3.668   3.644   3.717   4.066   3.808   3.863   4.213   4.233   4.201   4.466   4.343   4.306   4.206   4.063
    38.12    3.846   3.713   3.632   3.837   3.931   4.048   4.044   4.021   4.054   4.309   4.521   4.220   4.310   4.203   4.209   4.124   3.929
    27.81    3.805   3.655   3.807   3.911   3.990   4.114   3.888   3.923   3.954   4.096   4.115   4.213   4.197   4.335   4.209   4.089   3.717
    17.50    3.992   3.737   3.966   3.968   3.765   3.779   3.769   3.843   3.949   3.942   3.912   4.105   4.049   4.039   4.060   4.019   3.734

   Height   Standard deviation at grid points for the v component:
   182.50    3.233   3.233   3.233   3.233   3.233   3.233   3.233   3.233   3.233   3.233   3.233   3.233   3.233   3.233   3.233   3.233   3.233
   172.19    3.233   3.233   3.233   3.233   3.233   3.233   3.233   3.233   3.233   3.233   3.233   3.233   3.233   3.233   3.233   3.233   3.233
   161.88    3.233   3.233   3.233   3.233   3.233   3.233   3.233   3.233   3.233   3.233   3.233   3.233   3.233   3.233   3.233   3.233   3.233
   151.56    3.233   3.233   3.233   3.233   3.233   3.233   3.233   3.233   3.233   3.233   3.233   3.233   3.233   3.233   3.233   3.233   3.233
   141.25    3.233   3.233   3.233   3.233   3.233   3.233   3.233   3.233   3.233   3.233   3.233   3.233   3.233   3.233   3.233   3.233   3.233
   130.94    3.233   3.233   3.233   3.233   3.233   3.233   3.233   3.233   3.233   3.233   3.233   3.233   3.233   3.233   3.233   3.233   3.233
   120.62    3.233   3.233   3.233   3.233   3.233   3.233   3.233   3.233   3.233   3.233   3.233   3.233   3.233   3.233   3.233   3.233   3.233
   110.31    3.233   3.233   3.233   3.233   3.233   3.233   3.233   3.233   3.233   3.233   3.233   3.233   3.233   3.233   3.233   3.233   3.233
   100.00    3.233   3.233   3.233   3.233   3.233   3.233   3.233   3.233   3.233   3.233   3.233   3.233   3.233   3.233   3.233   3.233   3.233
    89.69    3.233   3.233   3.233   3.233   3.233   3.233   3.233   3.233   3.233   3.233   3.233   3.233   3.233   3.233   3.233   3.233   3.233
    79.38    3.233   3.233   3.233   3.233   3.233   3.233   3.233   3.233   3.233   3.233   3.233   3.233   3.233   3.233   3.233   3.233   3.233
    69.06    3.233   3.233   3.233   3.233   3.233   3.233   3.233   3.233   3.233   3.233   3.233   3.233   3.233   3.233   3.233   3.233   3.233
    58.75    3.233   3.233   3.233   3.233   3.233   3.233   3.233   3.233   3.233   3.233   3.233   3.233   3.233   3.233   3.233   3.233   3.233
    48.44    3.233   3.233   3.233   3.233   3.233   3.233   3.233   3.233   3.233   3.233   3.233   3.233   3.233   3.233   3.233   3.233   3.233
    38.12    3.233   3.233   3.233   3.233   3.233   3.233   3.233   3.233   3.233   3.233   3.233   3.233   3.233   3.233   3.233   3.233   3.233
    27.81    3.233   3.233   3.233   3.233   3.233   3.233   3.233   3.233   3.233   3.233   3.233   3.233   3.233   3.233   3.233   3.233   3.233
    17.50    3.233   3.233   3.233   3.233   3.233   3.233   3.233   3.233   3.233   3.233   3.233   3.233   3.233   3.233   3.233   3.233   3.233

   Height   Standard deviation at grid points for the w component:
   182.50    2.002   2.002   2.002   2.002   2.002   2.002   2.002   2.002   2.002   2.002   2.002   2.002   2.002   2.002   2.002   2.002   2.002
   172.19    2.002   2.002   2.002   2.002   2.002   2.002   2.002   2.002   2.002   2.002   2.002   2.002   2.002   2.002   2.002   2.002   2.002
   161.88    2.002   2.002   2.002   2.002   2.002   2.002   2.002   2.002   2.002   2.002   2.002   2.002   2.002   2.002   2.002   2.002   2.002
   151.56    2.002   2.002   2.002   2.002   2.002   2.002   2.002   2.002   2.002   2.002   2.002   2.002   2.002   2.002   2.002   2.002   2.002
   141.25    2.002   2.002   2.002   2.002   2.002   2.002   2.002   2.002   2.002   2.002   2.002   2.002   2.002   2.002   2.002   2.002   2.002
   130.94    2.002   2.002   2.002   2.002   2.002   2.002   2.002   2.002   2.002   2.002   2.002   2.002   2.002   2.002   2.002   2.002   2.002
   120.62    2.002   2.002   2.002   2.002   2.002   2.002   2.002   2.002   2.002   2.002   2.002   2.002   2.002   2.002   2.002   2.002   2.002
   110.31    2.002   2.002   2.002   2.002   2.002   2.002   2.002   2.002   2.002   2.002   2.002   2.002   2.002   2.002   2.002   2.002   2.002
   100.00    2.002   2.002   2.002   2.002   2.002   2.002   2.002   2.002   2.002   2.002   2.002   2.002   2.002   2.002   2.002   2.002   2.002
    89.69    2.002   2.002   2.002   2.002   2.002   2.002   2.002   2.002   2.002   2.002   2.002   2.002   2.002   2.002   2.002   2.002   2.002
    79.38    2.002   2.002   2.002   2.002   2.002   2.002   2.002   2.002   2.002   2.002   2.002   2.002   2.002   2.002   2.002   2.002   2.002
    69.06    2.002   2.002   2.002   2.002   2.002   2.002   2.002   2.002   2.002   2.002   2.002   2.002   2.002   2.002   2.002   2.002   2.002
    58.75    2.002   2.002   2.002   2.002   2.002   2.002   2.002   2.002   2.002   2.002   2.002   2.002   2.002   2.002   2.002   2.002   2.002
    48.44    2.002   2.002   2.002   2.002   2.002   2.002   2.002   2.002   2.002   2.002   2.002   2.002   2.002   2.002   2.002   2.002   2.002
    38.12    2.002   2.002   2.002   2.002   2.002   2.002   2.002   2.002   2.002   2.002   2.002   2.002   2.002   2.002   2.002   2.002   2.002
    27.81    2.002   2.002   2.002   2.002   2.002   2.002   2.002   2.002   2.002   2.002   2.002   2.002   2.002   2.002   2.002   2.002   2.002
    17.50    2.002   2.002   2.002   2.002   2.002   2.002   2.002   2.002   2.002   2.002   2.002   2.002   2.002   2.002   2.002   2.002   2.002

   Mean standard deviation across all grid points:
      u component:    4.243 m/s
      v component:    3.233 m/s
      w component:    2.002 m/s


U-component (X) statistics from the hub grid point:

   Mean =  19.0000 m/s
   TI   =  23.1594 %


Normalizing Parameters for Binary Data (approximate statistics):

   UBar  =  19.0000 m/s
   TI(u) =  23.1594 %
   TI(v) =  17.0148 %
   TI(w) =  10.5382 %

   Height Offset =   0.0000 m
   Grid Base     =  17.5000 m

Nyquist frequency of turbulent wind field =        10.000 Hz


Processing complete.  5.7812 CPU seconds used.
