
This summary file was generated by TurbSim (v1.06.00, 21-Sep-2012) on 21-Dec-2025 at 12:26:26.


Runtime Options:

   2567890  Random seed #1
    RANLUX  Type of random number generator
         F  Output binary HH turbulence parameters?
         F  Output formatted turbulence parameters?
         F  Output AeroDyn HH files?
         F  Output AeroDyn FF files?
         T  Output BLADED FF files?
         T  Output tower data?
         F  Output formatted FF files?
         F  Output coherent turbulence time step file?
         T  Clockwise rotation when looking downwind?
 0 -  NONE  IEC turbulence models scaled to exact specified standard deviation


Turbine/Model Specifications:

        17  Vertical grid-point matrix dimension
        17  Horizontal grid-point matrix dimension
     0.050  Time step [seconds]
    60.000  Analysis time [seconds]
   660.000  Usable output time [seconds]
   100.000  Hub height [m]
   165.000  Grid height [m]
   165.000  Grid width [m]
     0.000  Vertical flow angle [degrees]
     0.000  Horizontal flow angle [degrees]


Meteorological Boundary Conditions:

    IECKAI  IEC Kaimal spectral model
         1  IEC standard: IEC 61400-1 Ed. 3: 2005
         A  IEC turbulence characteristic
      2ETM  IEC Extreme Turbulence Model
     2.000  IEC Extreme Turbulence Model (ETM) "c" parameter [m/s]
       IEC  Wind profile type
   100.000  Reference height [m]
    23.000  Reference wind speed [m/s]
       N/A  Jet height [m]
     0.200  Power law exponent
     0.030  Surface roughness length [m]


You have requested that the following file(s) be generated:

   23ms_2A.wnd (AeroDyn/BLADED full-field wnd file)
   23ms_2A.twr (Binary tower twr file)


Turbulence Simulation Scaling Parameter Summary:

   Turbulence model used                            =  IEC Kaimal
   Turbulence characteristic                        =  2A
   IEC turbulence type                              =  Extreme Turbulence Model
   Reference wind speed average over 10 minutes     =   42.500 m/s
   Annual wind speed average at hub height          =    8.500 m/s
   IEC standard                                     =  IEC 61400-1 Ed. 3: 2005
   Mean wind speed at hub height                    =   23.000 m/s
   Expected value of turbulence intensity at 15 m/s =   16.000%
   Characteristic value of standard deviation       =    4.453 m/s
   Turbulence scale                                 =   42.000 m
   u-component integral scale                       =  340.200 m
   Coherency scale                                  =  340.200 m
   Characteristic value of hub turbulence intensity =   19.360%
   Gradient Richardson number                       =    0.000

   Wind profile type                                =  Power law on rotor disk, logarithmic elsewhere
   Power law exponent                               =    0.200
   Mean shear across rotor disk                     =    0.059 (m/s)/m
   Assumed rotor diameter                           =  165.000 m
   Surface roughness length                         =    0.030 m

   Number of time steps in the FFT                  =    13376
   Number of time steps output                      =    13344


Mean Flow Angles:

   Vertical   =   0.0 degrees
   Horizontal =   0.0 degrees

Mean Wind Speed Profile:

   Height    Wind Speed   Horizontal Angle  U-comp (X)   V-comp (Y)   W-comp (Z)
     (m)        (m/s)         (degrees)       (m/s)        (m/s)        (m/s)   
   ------    ----------   ----------------  ----------   ----------   ----------
    182.5       25.94            0.00         25.94         0.00         0.00
    172.2       25.64            0.00         25.64         0.00         0.00
    161.9       25.33            0.00         25.33         0.00         0.00
    151.6       24.99            0.00         24.99         0.00         0.00
    141.2       24.64            0.00         24.64         0.00         0.00
    130.9       24.27            0.00         24.27         0.00         0.00
    120.6       23.88            0.00         23.88         0.00         0.00
    110.3       23.46            0.00         23.46         0.00         0.00
    100.0       23.00            0.00         23.00         0.00         0.00
     89.7       22.50            0.00         22.50         0.00         0.00
     79.4       21.96            0.00         21.96         0.00         0.00
     69.1       21.36            0.00         21.36         0.00         0.00
     58.8       20.68            0.00         20.68         0.00         0.00
     48.4       19.90            0.00         19.90         0.00         0.00
     38.1       18.97            0.00         18.97         0.00         0.00
     27.8       17.81            0.00         17.81         0.00         0.00
     17.5       16.23            0.00         16.23         0.00         0.00
      7.2       15.53            0.00         15.53         0.00         0.00


Harvested Random Seeds after Generation of the Random Numbers:

     54064120 K1
            0 K2


Hub-Height Simulated Turbulence Statistical Summary:

   Type of Wind        Min (m/s)   Mean (m/s)    Max (m/s)  Sigma (m/s)       TI (%)
   ----------------    ---------   ----------    ---------  -----------       ------
   Longitudinal (u)        10.07        23.00        36.06        3.914       17.017
   Lateral (v)            -14.68         0.00        12.33        3.496       15.198
   Vertical (w)            -7.91         0.00         7.86        2.158        9.382
   U component             10.07        23.00        36.06        3.914       17.017
   V component            -14.68         0.00        12.33        3.496       15.198
   W component             -7.91         0.00         7.86        2.158        9.382
   Horizontal (U&V)        10.31        23.27        36.24        3.884       16.692
   Total                   10.47        23.37        36.27        3.880       16.601

                       Min Reynolds     Mean Reynolds    Max Reynolds    Correlation
   Product             Stress (m/s)^2   Stress (m/s)^2   Stress (m/s)^2  Coefficient
   ----------------    --------------   --------------   --------------  -----------
   u'w'                    -65.740            -0.335            53.836        -0.040
   u'v'                    -67.083             0.155            91.827         0.011
   v'w'                    -46.318             0.329            46.321         0.044


   Friction Velocity (Ustar)  =      0.578 m/s
   Maximum Instantaneous TKE  =    118.733 (m/s)^2
   Maximum Instantaneous CTKE =     47.062 (m/s)^2


Grid Point Variance Summary:

   Y-coord  -82.50  -72.19  -61.88  -51.56  -41.25  -30.94  -20.62  -10.31    0.00   10.31   20.62   30.94   41.25   51.56   61.88   72.19   82.50

   Height   Standard deviation at grid points for the u component:
   182.50    4.590   4.064   4.194   4.310   4.249   4.034   4.244   4.199   3.971   3.957   3.923   3.903   4.188   4.432   4.307   4.220   4.271
   172.19    4.340   4.339   4.246   4.337   4.212   4.186   4.097   4.204   3.902   3.831   3.986   3.868   3.898   4.018   4.284   4.442   4.300
   161.88    4.452   4.431   4.224   4.277   4.481   4.178   4.003   4.174   3.960   3.878   3.852   3.946   3.996   4.033   4.181   4.432   4.438
   151.56    4.486   4.233   4.471   4.360   4.485   4.079   4.058   4.124   3.978   3.852   3.865   4.006   4.152   4.185   4.305   4.326   4.517
   141.25    4.476   4.359   4.197   4.181   4.253   4.164   3.935   3.933   3.826   3.843   3.962   4.210   4.116   4.275   4.258   4.428   4.446
   130.94    4.494   4.247   4.366   4.335   4.109   3.991   3.985   3.936   3.843   3.788   3.807   3.978   4.111   4.230   4.278   4.351   4.290
   120.62    4.398   4.251   4.313   4.287   3.904   4.048   4.029   4.057   3.948   3.750   3.873   4.187   4.429   4.315   4.273   4.399   4.404
   110.31    4.513   4.334   4.325   4.034   3.841   4.092   4.114   3.941   3.760   3.877   3.994   4.141   4.218   4.443   4.570   4.469   4.557
   100.00    4.346   4.211   4.421   4.207   4.230   3.964   3.879   3.639   3.914   4.000   4.058   4.090   4.152   4.344   4.394   4.359   4.581
    89.69    4.127   4.076   4.283   4.227   4.169   3.932   4.135   3.910   3.938   3.791   4.065   4.146   4.011   4.255   4.295   4.032   4.033
    79.38    4.301   4.238   4.219   4.213   3.933   3.872   3.991   3.828   3.913   4.033   3.894   4.053   3.952   4.139   4.024   4.000   4.004
    69.06    4.215   4.192   4.108   3.982   3.770   3.859   3.993   4.271   4.286   4.218   4.095   4.104   3.927   4.214   3.986   4.026   4.016
    58.75    4.153   4.308   3.977   4.073   4.095   4.108   4.156   4.124   4.215   4.137   4.000   3.859   3.790   4.007   3.883   3.885   3.880
    48.44    4.271   3.968   3.947   3.943   4.178   4.222   4.105   4.033   4.056   4.106   4.135   3.956   3.896   3.974   4.085   3.993   3.893
    38.12    4.183   4.048   3.927   4.155   4.288   4.069   3.832   3.880   3.928   4.047   4.154   3.983   3.876   4.053   4.069   4.039   4.061
    27.81    4.178   4.288   4.191   4.169   4.249   3.892   4.073   3.950   3.938   4.050   4.229   3.987   4.109   4.099   3.914   3.826   3.985
    17.50    4.332   3.992   4.116   4.005   4.007   3.891   3.782   3.987   4.016   3.893   4.128   4.164   4.157   4.151   3.964   4.068   3.830

   Height   Standard deviation at grid points for the v component:
   182.50    3.496   3.496   3.496   3.496   3.496   3.496   3.496   3.496   3.496   3.496   3.496   3.496   3.496   3.496   3.496   3.496   3.496
   172.19    3.496   3.496   3.496   3.496   3.496   3.496   3.496   3.496   3.496   3.496   3.496   3.496   3.496   3.496   3.496   3.496   3.496
   161.88    3.496   3.496   3.496   3.496   3.496   3.496   3.496   3.496   3.496   3.496   3.496   3.496   3.496   3.496   3.496   3.496   3.496
   151.56    3.496   3.496   3.496   3.496   3.496   3.496   3.496   3.496   3.496   3.496   3.496   3.496   3.496   3.496   3.496   3.496   3.496
   141.25    3.496   3.496   3.496   3.496   3.496   3.496   3.496   3.496   3.496   3.496   3.496   3.496   3.496   3.496   3.496   3.496   3.496
   130.94    3.496   3.496   3.496   3.496   3.496   3.496   3.496   3.496   3.496   3.496   3.496   3.496   3.496   3.496   3.496   3.496   3.496
   120.62    3.496   3.496   3.496   3.496   3.496   3.496   3.496   3.496   3.496   3.496   3.496   3.496   3.496   3.496   3.496   3.496   3.496
   110.31    3.496   3.496   3.496   3.496   3.496   3.496   3.496   3.496   3.496   3.496   3.496   3.496   3.496   3.496   3.496   3.496   3.496
   100.00    3.496   3.496   3.496   3.496   3.496   3.496   3.496   3.496   3.496   3.496   3.496   3.496   3.496   3.496   3.496   3.496   3.496
    89.69    3.496   3.496   3.496   3.496   3.496   3.496   3.496   3.496   3.496   3.496   3.496   3.496   3.496   3.496   3.496   3.496   3.496
    79.38    3.496   3.496   3.496   3.496   3.496   3.496   3.496   3.496   3.496   3.496   3.496   3.496   3.496   3.496   3.496   3.496   3.496
    69.06    3.496   3.496   3.496   3.496   3.496   3.496   3.496   3.496   3.496   3.496   3.496   3.496   3.496   3.496   3.496   3.496   3.496
    58.75    3.496   3.496   3.496   3.496   3.496   3.496   3.496   3.496   3.496   3.496   3.496   3.496   3.496   3.496   3.496   3.496   3.496
    48.44    3.496   3.496   3.496   3.496   3.496   3.496   3.496   3.496   3.496   3.496   3.496   3.496   3.496   3.496   3.496   3.496   3.496
    38.12    3.496   3.496   3.496   3.496   3.496   3.496   3.496   3.496   3.496   3.496   3.496   3.496   3.496   3.496   3.496   3.496   3.496
    27.81    3.496   3.496   3.496   3.496   3.496   3.496   3.496   3.496   3.496   3.496   3.496   3.496   3.496   3.496   3.496   3.496   3.496
    17.50    3.496   3.496   3.496   3.496   3.496   3.496   3.496   3.496   3.496   3.496   3.496   3.496   3.496   3.496   3.496   3.496   3.496

   Height   Standard deviation at grid points for the w component:
   182.50    2.158   2.158   2.158   2.158   2.158   2.158   2.158   2.158   2.158   2.158   2.158   2.158   2.158   2.158   2.158   2.158   2.158
   172.19    2.158   2.158   2.158   2.158   2.158   2.158   2.158   2.158   2.158   2.158   2.158   2.158   2.158   2.158   2.158   2.158   2.158
   161.88    2.158   2.158   2.158   2.158   2.158   2.158   2.158   2.158   2.158   2.158   2.158   2.158   2.158   2.158   2.158   2.158   2.158
   151.56    2.158   2.158   2.158   2.158   2.158   2.158   2.158   2.158   2.158   2.158   2.158   2.158   2.158   2.158   2.158   2.158   2.158
   141.25    2.158   2.158   2.158   2.158   2.158   2.158   2.158   2.158   2.158   2.158   2.158   2.158   2.158   2.158   2.158   2.158   2.158
   130.94    2.158   2.158   2.158   2.158   2.158   2.158   2.158   2.158   2.158   2.158   2.158   2.158   2.158   2.158   2.158   2.158   2.158
   120.62    2.158   2.158   2.158   2.158   2.158   2.158   2.158   2.158   2.158   2.158   2.158   2.158   2.158   2.158   2.158   2.158   2.158
   110.31    2.158   2.158   2.158   2.158   2.158   2.158   2.158   2.158   2.158   2.158   2.158   2.158   2.158   2.158   2.158   2.158   2.158
   100.00    2.158   2.158   2.158   2.158   2.158   2.158   2.158   2.158   2.158   2.158   2.158   2.158   2.158   2.158   2.158   2.158   2.158
    89.69    2.158   2.158   2.158   2.158   2.158   2.158   2.158   2.158   2.158   2.158   2.158   2.158   2.158   2.158   2.158   2.158   2.158
    79.38    2.158   2.158   2.158   2.158   2.158   2.158   2.158   2.158   2.158   2.158   2.158   2.158   2.158   2.158   2.158   2.158   2.158
    69.06    2.158   2.158   2.158   2.158   2.158   2.158   2.158   2.158   2.158   2.158   2.158   2.158   2.158   2.158   2.158   2.158   2.158
    58.75    2.158   2.158   2.158   2.158   2.158   2.158   2.158   2.158   2.158   2.158   2.158   2.158   2.158   2.158   2.158   2.158   2.158
    48.44    2.158   2.158   2.158   2.158   2.158   2.158   2.158   2.158   2.158   2.158   2.158   2.158   2.158   2.158   2.158   2.158   2.158
    38.12    2.158   2.158   2.158   2.158   2.158   2.158   2.158   2.158   2.158   2.158   2.158   2.158   2.158   2.158   2.158   2.158   2.158
    27.81    2.158   2.158   2.158   2.158   2.158   2.158   2.158   2.158   2.158   2.158   2.158   2.158   2.158   2.158   2.158   2.158   2.158
    17.50    2.158   2.158   2.158   2.158   2.158   2.158   2.158   2.158   2.158   2.158   2.158   2.158   2.158   2.158   2.158   2.158   2.158

   Mean standard deviation across all grid points:
      u component:    4.113 m/s
      v component:    3.496 m/s
      w component:    2.158 m/s


U-component (X) statistics from the hub grid point:

   Mean =  23.0000 m/s
   TI   =  17.0172 %


Normalizing Parameters for Binary Data (approximate statistics):

   UBar  =  23.0000 m/s
   TI(u) =  17.0172 %
   TI(v) =  15.1985 %
   TI(w) =   9.3817 %

   Height Offset =   0.0000 m
   Grid Base     =  17.5000 m

Nyquist frequency of turbulent wind field =        10.000 Hz


Processing complete.  6.0469 CPU seconds used.
