
This summary file was generated by TurbSim (v1.06.00, 21-Sep-2012) on 18-Jan-2026 at 22:35:51.


Runtime Options:

       300  Random seed #1
    RANLUX  Type of random number generator
         F  Output binary HH turbulence parameters?
         F  Output formatted turbulence parameters?
         F  Output AeroDyn HH files?
         F  Output AeroDyn FF files?
         T  Output BLADED FF files?
         T  Output tower data?
         F  Output formatted FF files?
         F  Output coherent turbulence time step file?
         T  Clockwise rotation when looking downwind?
 0 -  NONE  IEC turbulence models scaled to exact specified standard deviation


Turbine/Model Specifications:

        17  Vertical grid-point matrix dimension
        17  Horizontal grid-point matrix dimension
     0.050  Time step [seconds]
    60.000  Analysis time [seconds]
   660.000  Usable output time [seconds]
   100.000  Hub height [m]
   165.000  Grid height [m]
   165.000  Grid width [m]
     0.000  Vertical flow angle [degrees]
     0.000  Horizontal flow angle [degrees]


Meteorological Boundary Conditions:

    IECKAI  IEC Kaimal spectral model
         1  IEC standard: IEC 61400-1 Ed. 3: 2005
         A  IEC turbulence characteristic
       NTM  IEC Normal Turbulence Model
       N/A  IEC Extreme Turbulence Model (ETM) "c" parameter [m/s]
       IEC  Wind profile type
   100.000  Reference height [m]
     8.400  Reference wind speed [m/s]
       N/A  Jet height [m]
     0.200  Power law exponent
     0.030  Surface roughness length [m]


You have requested that the following file(s) be generated:

   8ms_2A.wnd (AeroDyn/BLADED full-field wnd file)
   8ms_2A.twr (Binary tower twr file)


Turbulence Simulation Scaling Parameter Summary:

   Turbulence model used                            =  IEC Kaimal
   Turbulence characteristic                        =  A
   IEC turbulence type                              =  Normal Turbulence Model
   IEC standard                                     =  IEC 61400-1 Ed. 3: 2005
   Mean wind speed at hub height                    =    8.400 m/s
   Expected value of turbulence intensity at 15 m/s =   16.000%
   Characteristic value of standard deviation       =    1.904 m/s
   Turbulence scale                                 =   42.000 m
   u-component integral scale                       =  340.200 m
   Coherency scale                                  =  340.200 m
   Characteristic value of hub turbulence intensity =   22.667%
   Gradient Richardson number                       =    0.000

   Wind profile type                                =  Power law on rotor disk, logarithmic elsewhere
   Power law exponent                               =    0.200
   Mean shear across rotor disk                     =    0.021 (m/s)/m
   Assumed rotor diameter                           =  165.000 m
   Surface roughness length                         =    0.030 m

   Number of time steps in the FFT                  =    13600
   Number of time steps output                      =    13593


Mean Flow Angles:

   Vertical   =   0.0 degrees
   Horizontal =   0.0 degrees

Mean Wind Speed Profile:

   Height    Wind Speed   Horizontal Angle  U-comp (X)   V-comp (Y)   W-comp (Z)
     (m)        (m/s)         (degrees)       (m/s)        (m/s)        (m/s)   
   ------    ----------   ----------------  ----------   ----------   ----------
    182.5        9.47            0.00          9.47         0.00         0.00
    172.2        9.36            0.00          9.36         0.00         0.00
    161.9        9.25            0.00          9.25         0.00         0.00
    151.6        9.13            0.00          9.13         0.00         0.00
    141.2        9.00            0.00          9.00         0.00         0.00
    130.9        8.87            0.00          8.87         0.00         0.00
    120.6        8.72            0.00          8.72         0.00         0.00
    110.3        8.57            0.00          8.57         0.00         0.00
    100.0        8.40            0.00          8.40         0.00         0.00
     89.7        8.22            0.00          8.22         0.00         0.00
     79.4        8.02            0.00          8.02         0.00         0.00
     69.1        7.80            0.00          7.80         0.00         0.00
     58.8        7.55            0.00          7.55         0.00         0.00
     48.4        7.27            0.00          7.27         0.00         0.00
     38.1        6.93            0.00          6.93         0.00         0.00
     27.8        6.50            0.00          6.50         0.00         0.00
     17.5        5.93            0.00          5.93         0.00         0.00
      7.2        5.67            0.00          5.67         0.00         0.00


Harvested Random Seeds after Generation of the Random Numbers:

     54969500 K1
            0 K2


Hub-Height Simulated Turbulence Statistical Summary:

   Type of Wind        Min (m/s)   Mean (m/s)    Max (m/s)  Sigma (m/s)       TI (%)
   ----------------    ---------   ----------    ---------  -----------       ------
   Longitudinal (u)         3.70         8.40        12.54        1.398       16.646
   Lateral (v)             -4.86         0.00         4.70        1.485       17.675
   Vertical (w)            -3.34         0.00         3.07        0.933       11.110
   U component              3.70         8.40        12.54        1.398       16.646
   V component             -4.86         0.00         4.70        1.485       17.675
   W component             -3.34         0.00         3.07        0.933       11.110
   Horizontal (U&V)         3.73         8.54        12.55        1.368       16.023
   Total                    3.73         8.59        12.57        1.366       15.914

                       Min Reynolds     Mean Reynolds    Max Reynolds    Correlation
   Product             Stress (m/s)^2   Stress (m/s)^2   Stress (m/s)^2  Coefficient
   ----------------    --------------   --------------   --------------  -----------
   u'w'                     -8.220            -0.036             6.903        -0.028
   u'v'                    -10.962            -0.102            10.034        -0.049
   v'w'                     -8.533             0.008            10.091         0.005


   Friction Velocity (Ustar)  =      0.190 m/s
   Maximum Instantaneous TKE  =     13.034 (m/s)^2
   Maximum Instantaneous CTKE =      6.622 (m/s)^2


Grid Point Variance Summary:

   Y-coord  -82.50  -72.19  -61.88  -51.56  -41.25  -30.94  -20.62  -10.31    0.00   10.31   20.62   30.94   41.25   51.56   61.88   72.19   82.50

   Height   Standard deviation at grid points for the u component:
   182.50    1.547   1.592   1.557   1.469   1.408   1.401   1.378   1.487   1.525   1.679   1.625   1.439   1.292   1.343   1.424   1.465   1.449
   172.19    1.532   1.630   1.460   1.301   1.343   1.330   1.365   1.539   1.610   1.608   1.484   1.354   1.332   1.339   1.355   1.445   1.480
   161.88    1.584   1.566   1.534   1.383   1.294   1.382   1.407   1.585   1.610   1.478   1.372   1.344   1.273   1.305   1.367   1.311   1.429
   151.56    1.549   1.666   1.705   1.459   1.449   1.450   1.508   1.652   1.675   1.500   1.414   1.469   1.326   1.227   1.295   1.312   1.435
   141.25    1.625   1.652   1.738   1.727   1.589   1.615   1.470   1.583   1.618   1.558   1.501   1.421   1.348   1.428   1.375   1.364   1.521
   130.94    1.632   1.680   1.696   1.750   1.714   1.635   1.502   1.584   1.618   1.630   1.573   1.549   1.509   1.506   1.649   1.631   1.628
   120.62    1.639   1.763   1.705   1.763   1.782   1.560   1.515   1.379   1.580   1.562   1.453   1.687   1.635   1.653   1.558   1.588   1.572
   110.31    1.567   1.681   1.619   1.676   1.665   1.599   1.484   1.466   1.473   1.617   1.561   1.649   1.669   1.553   1.567   1.640   1.570
   100.00    1.585   1.492   1.545   1.440   1.498   1.501   1.379   1.375   1.398   1.476   1.589   1.526   1.639   1.540   1.413   1.380   1.404
    89.69    1.467   1.469   1.400   1.321   1.506   1.491   1.362   1.319   1.380   1.470   1.425   1.475   1.442   1.544   1.517   1.509   1.450
    79.38    1.466   1.403   1.395   1.373   1.367   1.419   1.411   1.371   1.368   1.472   1.484   1.414   1.456   1.541   1.477   1.591   1.644
    69.06    1.480   1.552   1.477   1.361   1.493   1.379   1.419   1.398   1.503   1.562   1.487   1.527   1.605   1.504   1.502   1.562   1.611
    58.75    1.662   1.469   1.518   1.518   1.494   1.543   1.316   1.331   1.590   1.611   1.610   1.641   1.532   1.481   1.614   1.553   1.705
    48.44    1.566   1.512   1.533   1.569   1.583   1.613   1.320   1.370   1.507   1.483   1.468   1.601   1.503   1.588   1.635   1.732   1.804
    38.12    1.575   1.710   1.602   1.667   1.711   1.614   1.535   1.590   1.424   1.540   1.546   1.589   1.641   1.547   1.462   1.550   1.719
    27.81    1.728   1.811   1.807   1.574   1.670   1.656   1.601   1.600   1.470   1.525   1.498   1.537   1.488   1.437   1.508   1.449   1.498
    17.50    1.793   1.772   1.781   1.775   1.604   1.706   1.666   1.592   1.571   1.552   1.570   1.388   1.517   1.421   1.365   1.434   1.467

   Height   Standard deviation at grid points for the v component:
   182.50    1.485   1.485   1.485   1.485   1.485   1.485   1.485   1.485   1.485   1.485   1.485   1.485   1.485   1.485   1.485   1.485   1.485
   172.19    1.485   1.485   1.485   1.485   1.485   1.485   1.485   1.485   1.485   1.485   1.485   1.485   1.485   1.485   1.485   1.485   1.485
   161.88    1.485   1.485   1.485   1.485   1.485   1.485   1.485   1.485   1.485   1.485   1.485   1.485   1.485   1.485   1.485   1.485   1.485
   151.56    1.485   1.485   1.485   1.485   1.485   1.485   1.485   1.485   1.485   1.485   1.485   1.485   1.485   1.485   1.485   1.485   1.485
   141.25    1.485   1.485   1.485   1.485   1.485   1.485   1.485   1.485   1.485   1.485   1.485   1.485   1.485   1.485   1.485   1.485   1.485
   130.94    1.485   1.485   1.485   1.485   1.485   1.485   1.485   1.485   1.485   1.485   1.485   1.485   1.485   1.485   1.485   1.485   1.485
   120.62    1.485   1.485   1.485   1.485   1.485   1.485   1.485   1.485   1.485   1.485   1.485   1.485   1.485   1.485   1.485   1.485   1.485
   110.31    1.485   1.485   1.485   1.485   1.485   1.485   1.485   1.485   1.485   1.485   1.485   1.485   1.485   1.485   1.485   1.485   1.485
   100.00    1.485   1.485   1.485   1.485   1.485   1.485   1.485   1.485   1.485   1.485   1.485   1.485   1.485   1.485   1.485   1.485   1.485
    89.69    1.485   1.485   1.485   1.485   1.485   1.485   1.485   1.485   1.485   1.485   1.485   1.485   1.485   1.485   1.485   1.485   1.485
    79.38    1.485   1.485   1.485   1.485   1.485   1.485   1.485   1.485   1.485   1.485   1.485   1.485   1.485   1.485   1.485   1.485   1.485
    69.06    1.485   1.485   1.485   1.485   1.485   1.485   1.485   1.485   1.485   1.485   1.485   1.485   1.485   1.485   1.485   1.485   1.485
    58.75    1.485   1.485   1.485   1.485   1.485   1.485   1.485   1.485   1.485   1.485   1.485   1.485   1.485   1.485   1.485   1.485   1.485
    48.44    1.485   1.485   1.485   1.485   1.485   1.485   1.485   1.485   1.485   1.485   1.485   1.485   1.485   1.485   1.485   1.485   1.485
    38.12    1.485   1.485   1.485   1.485   1.485   1.485   1.485   1.485   1.485   1.485   1.485   1.485   1.485   1.485   1.485   1.485   1.485
    27.81    1.485   1.485   1.485   1.485   1.485   1.485   1.485   1.485   1.485   1.485   1.485   1.485   1.485   1.485   1.485   1.485   1.485
    17.50    1.485   1.485   1.485   1.485   1.485   1.485   1.485   1.485   1.485   1.485   1.485   1.485   1.485   1.485   1.485   1.485   1.485

   Height   Standard deviation at grid points for the w component:
   182.50    0.933   0.933   0.933   0.933   0.933   0.933   0.933   0.933   0.933   0.933   0.933   0.933   0.933   0.933   0.933   0.933   0.933
   172.19    0.933   0.933   0.933   0.933   0.933   0.933   0.933   0.933   0.933   0.933   0.933   0.933   0.933   0.933   0.933   0.933   0.933
   161.88    0.933   0.933   0.933   0.933   0.933   0.933   0.933   0.933   0.933   0.933   0.933   0.933   0.933   0.933   0.933   0.933   0.933
   151.56    0.933   0.933   0.933   0.933   0.933   0.933   0.933   0.933   0.933   0.933   0.933   0.933   0.933   0.933   0.933   0.933   0.933
   141.25    0.933   0.933   0.933   0.933   0.933   0.933   0.933   0.933   0.933   0.933   0.933   0.933   0.933   0.933   0.933   0.933   0.933
   130.94    0.933   0.933   0.933   0.933   0.933   0.933   0.933   0.933   0.933   0.933   0.933   0.933   0.933   0.933   0.933   0.933   0.933
   120.62    0.933   0.933   0.933   0.933   0.933   0.933   0.933   0.933   0.933   0.933   0.933   0.933   0.933   0.933   0.933   0.933   0.933
   110.31    0.933   0.933   0.933   0.933   0.933   0.933   0.933   0.933   0.933   0.933   0.933   0.933   0.933   0.933   0.933   0.933   0.933
   100.00    0.933   0.933   0.933   0.933   0.933   0.933   0.933   0.933   0.933   0.933   0.933   0.933   0.933   0.933   0.933   0.933   0.933
    89.69    0.933   0.933   0.933   0.933   0.933   0.933   0.933   0.933   0.933   0.933   0.933   0.933   0.933   0.933   0.933   0.933   0.933
    79.38    0.933   0.933   0.933   0.933   0.933   0.933   0.933   0.933   0.933   0.933   0.933   0.933   0.933   0.933   0.933   0.933   0.933
    69.06    0.933   0.933   0.933   0.933   0.933   0.933   0.933   0.933   0.933   0.933   0.933   0.933   0.933   0.933   0.933   0.933   0.933
    58.75    0.933   0.933   0.933   0.933   0.933   0.933   0.933   0.933   0.933   0.933   0.933   0.933   0.933   0.933   0.933   0.933   0.933
    48.44    0.933   0.933   0.933   0.933   0.933   0.933   0.933   0.933   0.933   0.933   0.933   0.933   0.933   0.933   0.933   0.933   0.933
    38.12    0.933   0.933   0.933   0.933   0.933   0.933   0.933   0.933   0.933   0.933   0.933   0.933   0.933   0.933   0.933   0.933   0.933
    27.81    0.933   0.933   0.933   0.933   0.933   0.933   0.933   0.933   0.933   0.933   0.933   0.933   0.933   0.933   0.933   0.933   0.933
    17.50    0.933   0.933   0.933   0.933   0.933   0.933   0.933   0.933   0.933   0.933   0.933   0.933   0.933   0.933   0.933   0.933   0.933

   Mean standard deviation across all grid points:
      u component:    1.523 m/s
      v component:    1.485 m/s
      w component:    0.933 m/s


U-component (X) statistics from the hub grid point:

   Mean =   8.4000 m/s
   TI   =  16.6456 %


Normalizing Parameters for Binary Data (approximate statistics):

   UBar  =   8.4000 m/s
   TI(u) =  16.6456 %
   TI(v) =  17.6752 %
   TI(w) =  11.1103 %

   Height Offset =   0.0000 m
   Grid Base     =  17.5000 m

Nyquist frequency of turbulent wind field =        10.000 Hz


Processing complete.  5.2812 CPU seconds used.
