
This summary file was generated by TurbSim (v1.06.00, 21-Sep-2012) on 23-Jan-2026 at 21:06:15.


Runtime Options:

      1000  Random seed #1
    RANLUX  Type of random number generator
         F  Output binary HH turbulence parameters?
         F  Output formatted turbulence parameters?
         F  Output AeroDyn HH files?
         F  Output AeroDyn FF files?
         T  Output BLADED FF files?
         T  Output tower data?
         F  Output formatted FF files?
         F  Output coherent turbulence time step file?
         T  Clockwise rotation when looking downwind?
 0 -  NONE  IEC turbulence models scaled to exact specified standard deviation


Turbine/Model Specifications:

        17  Vertical grid-point matrix dimension
        17  Horizontal grid-point matrix dimension
     0.050  Time step [seconds]
    60.000  Analysis time [seconds]
   660.000  Usable output time [seconds]
   100.000  Hub height [m]
   165.000  Grid height [m]
   165.000  Grid width [m]
     0.000  Vertical flow angle [degrees]
     0.000  Horizontal flow angle [degrees]


Meteorological Boundary Conditions:

    IECKAI  IEC Kaimal spectral model
         1  IEC standard: IEC 61400-1 Ed. 3: 2005
         A  IEC turbulence characteristic
      2ETM  IEC Extreme Turbulence Model
     2.000  IEC Extreme Turbulence Model (ETM) "c" parameter [m/s]
       IEC  Wind profile type
   100.000  Reference height [m]
    25.000  Reference wind speed [m/s]
       N/A  Jet height [m]
     0.200  Power law exponent
     0.030  Surface roughness length [m]


You have requested that the following file(s) be generated:

   25ms_2A.wnd (AeroDyn/BLADED full-field wnd file)
   25ms_2A.twr (Binary tower twr file)


Turbulence Simulation Scaling Parameter Summary:

   Turbulence model used                            =  IEC Kaimal
   Turbulence characteristic                        =  2A
   IEC turbulence type                              =  Extreme Turbulence Model
   Reference wind speed average over 10 minutes     =   42.500 m/s
   Annual wind speed average at hub height          =    8.500 m/s
   IEC standard                                     =  IEC 61400-1 Ed. 3: 2005
   Mean wind speed at hub height                    =   25.000 m/s
   Expected value of turbulence intensity at 15 m/s =   16.000%
   Characteristic value of standard deviation       =    4.620 m/s
   Turbulence scale                                 =   42.000 m
   u-component integral scale                       =  340.200 m
   Coherency scale                                  =  340.200 m
   Characteristic value of hub turbulence intensity =   18.479%
   Gradient Richardson number                       =    0.000

   Wind profile type                                =  Power law on rotor disk, logarithmic elsewhere
   Power law exponent                               =    0.200
   Mean shear across rotor disk                     =    0.064 (m/s)/m
   Assumed rotor diameter                           =  165.000 m
   Surface roughness length                         =    0.030 m

   Number of time steps in the FFT                  =    13376
   Number of time steps output                      =    13332


Mean Flow Angles:

   Vertical   =   0.0 degrees
   Horizontal =   0.0 degrees

Mean Wind Speed Profile:

   Height    Wind Speed   Horizontal Angle  U-comp (X)   V-comp (Y)   W-comp (Z)
     (m)        (m/s)         (degrees)       (m/s)        (m/s)        (m/s)   
   ------    ----------   ----------------  ----------   ----------   ----------
    182.5       28.20            0.00         28.20         0.00         0.00
    172.2       27.87            0.00         27.87         0.00         0.00
    161.9       27.53            0.00         27.53         0.00         0.00
    151.6       27.17            0.00         27.17         0.00         0.00
    141.2       26.79            0.00         26.79         0.00         0.00
    130.9       26.38            0.00         26.38         0.00         0.00
    120.6       25.96            0.00         25.96         0.00         0.00
    110.3       25.50            0.00         25.50         0.00         0.00
    100.0       25.00            0.00         25.00         0.00         0.00
     89.7       24.46            0.00         24.46         0.00         0.00
     79.4       23.87            0.00         23.87         0.00         0.00
     69.1       23.22            0.00         23.22         0.00         0.00
     58.8       22.48            0.00         22.48         0.00         0.00
     48.4       21.63            0.00         21.63         0.00         0.00
     38.1       20.61            0.00         20.61         0.00         0.00
     27.8       19.35            0.00         19.35         0.00         0.00
     17.5       17.64            0.00         17.64         0.00         0.00
      7.2       16.89            0.00         16.89         0.00         0.00


Harvested Random Seeds after Generation of the Random Numbers:

     54064120 K1
            0 K2


Hub-Height Simulated Turbulence Statistical Summary:

   Type of Wind        Min (m/s)   Mean (m/s)    Max (m/s)  Sigma (m/s)       TI (%)
   ----------------    ---------   ----------    ---------  -----------       ------
   Longitudinal (u)        10.70        25.00        44.51        4.647       18.588
   Lateral (v)            -11.54         0.00        13.91        3.627       14.506
   Vertical (w)            -8.92         0.00         8.62        2.235        8.941
   U component             10.70        25.00        44.51        4.647       18.588
   V component            -11.54         0.00        13.91        3.627       14.506
   W component             -8.92         0.00         8.62        2.235        8.941
   Horizontal (U&V)        10.70        25.27        44.60        4.601       18.207
   Total                   10.70        25.37        44.70        4.586       18.077

                       Min Reynolds     Mean Reynolds    Max Reynolds    Correlation
   Product             Stress (m/s)^2   Stress (m/s)^2   Stress (m/s)^2  Coefficient
   ----------------    --------------   --------------   --------------  -----------
   u'w'                    -86.708             0.577            85.120         0.056
   u'v'                    -85.174            -0.556           106.006        -0.033
   v'w'                    -94.790            -0.597            71.303        -0.074


   Friction Velocity (Ustar)  =      0.760 m/s
   Maximum Instantaneous TKE  =    198.963 (m/s)^2
   Maximum Instantaneous CTKE =     64.123 (m/s)^2


Grid Point Variance Summary:

   Y-coord  -82.50  -72.19  -61.88  -51.56  -41.25  -30.94  -20.62  -10.31    0.00   10.31   20.62   30.94   41.25   51.56   61.88   72.19   82.50

   Height   Standard deviation at grid points for the u component:
   182.50    4.652   4.652   4.626   4.551   4.274   4.315   4.394   4.120   4.125   4.254   4.288   4.410   4.360   4.362   4.200   4.237   4.445
   172.19    4.586   4.767   4.562   4.446   4.443   4.310   4.266   4.185   4.448   4.339   4.438   4.618   4.749   4.632   4.513   4.624   4.321
   161.88    4.636   4.508   4.538   4.322   4.390   4.317   4.375   4.494   4.418   4.654   4.614   4.586   4.724   4.589   4.636   4.512   4.130
   151.56    4.634   4.293   4.251   4.459   4.368   4.606   4.580   4.687   4.740   4.826   4.871   4.861   4.430   4.329   4.537   4.556   4.664
   141.25    4.420   4.206   4.285   4.540   4.355   4.623   4.456   4.905   4.776   5.136   4.867   4.612   4.463   4.441   4.574   4.564   4.686
   130.94    4.347   4.523   4.518   4.309   4.331   4.235   4.287   4.898   5.054   5.161   5.025   4.951   4.709   4.483   4.302   4.467   4.513
   120.62    4.515   4.415   4.494   4.406   4.312   4.587   4.469   5.012   5.232   5.285   4.929   4.983   4.599   4.574   4.311   4.482   4.524
   110.31    4.679   4.620   4.562   4.317   4.363   4.699   4.684   4.887   5.094   5.089   5.049   5.091   4.720   4.440   4.511   4.494   4.482
   100.00    4.563   4.540   4.393   4.272   4.513   4.216   4.539   4.817   4.647   4.854   5.017   4.912   4.513   4.522   4.505   4.569   4.543
    89.69    4.572   4.592   4.690   4.342   4.579   4.288   4.482   4.626   4.909   4.687   4.838   4.867   4.451   4.338   4.378   4.366   4.355
    79.38    4.546   4.721   4.666   4.474   4.367   4.277   4.541   4.592   4.618   4.694   4.852   4.868   4.522   4.303   4.315   4.478   4.397
    69.06    4.326   4.743   4.704   4.413   4.253   4.321   4.292   4.435   4.556   4.795   4.534   4.619   4.593   4.461   4.362   4.555   4.536
    58.75    4.364   4.655   5.031   4.673   4.580   4.496   4.592   4.585   4.346   4.565   4.924   4.841   4.840   4.602   4.466   4.671   4.599
    48.44    4.559   4.584   4.999   4.709   4.894   4.563   4.465   4.695   4.710   4.725   4.866   4.966   4.867   4.687   4.745   4.769   4.598
    38.12    4.495   4.658   4.885   4.892   4.964   4.743   4.627   4.570   4.685   4.555   4.507   4.917   4.582   4.627   4.472   4.597   4.644
    27.81    4.613   4.551   4.795   4.704   4.714   4.630   4.585   4.778   4.927   4.754   4.588   4.629   4.357   4.344   4.408   4.481   4.691
    17.50    4.501   4.523   4.551   4.605   4.503   4.436   4.648   4.880   4.778   4.885   4.943   4.587   4.480   4.476   4.326   4.531   4.656

   Height   Standard deviation at grid points for the v component:
   182.50    3.627   3.627   3.627   3.627   3.627   3.627   3.627   3.627   3.627   3.627   3.627   3.627   3.627   3.627   3.627   3.627   3.627
   172.19    3.627   3.627   3.627   3.627   3.627   3.627   3.627   3.627   3.627   3.627   3.627   3.627   3.627   3.627   3.627   3.627   3.627
   161.88    3.627   3.627   3.627   3.627   3.627   3.627   3.627   3.627   3.627   3.627   3.627   3.627   3.627   3.627   3.627   3.627   3.627
   151.56    3.627   3.627   3.627   3.627   3.627   3.627   3.627   3.627   3.627   3.627   3.627   3.627   3.627   3.627   3.627   3.627   3.627
   141.25    3.627   3.627   3.627   3.627   3.627   3.627   3.627   3.627   3.627   3.627   3.627   3.627   3.627   3.627   3.627   3.627   3.627
   130.94    3.627   3.627   3.627   3.627   3.627   3.627   3.627   3.627   3.627   3.627   3.627   3.627   3.627   3.627   3.627   3.627   3.627
   120.62    3.627   3.627   3.627   3.627   3.627   3.627   3.627   3.627   3.627   3.627   3.627   3.627   3.627   3.627   3.627   3.627   3.627
   110.31    3.627   3.627   3.627   3.627   3.627   3.627   3.627   3.627   3.627   3.627   3.627   3.627   3.627   3.627   3.627   3.627   3.627
   100.00    3.627   3.627   3.627   3.627   3.627   3.627   3.627   3.627   3.627   3.627   3.627   3.627   3.627   3.627   3.627   3.627   3.627
    89.69    3.627   3.627   3.627   3.627   3.627   3.627   3.627   3.627   3.627   3.627   3.627   3.627   3.627   3.627   3.627   3.627   3.627
    79.38    3.627   3.627   3.627   3.627   3.627   3.627   3.627   3.627   3.627   3.627   3.627   3.627   3.627   3.627   3.627   3.627   3.627
    69.06    3.627   3.627   3.627   3.627   3.627   3.627   3.627   3.627   3.627   3.627   3.627   3.627   3.627   3.627   3.627   3.627   3.627
    58.75    3.627   3.627   3.627   3.627   3.627   3.627   3.627   3.627   3.627   3.627   3.627   3.627   3.627   3.627   3.627   3.627   3.627
    48.44    3.627   3.627   3.627   3.627   3.627   3.627   3.627   3.627   3.627   3.627   3.627   3.627   3.627   3.627   3.627   3.627   3.627
    38.12    3.627   3.627   3.627   3.627   3.627   3.627   3.627   3.627   3.627   3.627   3.627   3.627   3.627   3.627   3.627   3.627   3.627
    27.81    3.627   3.627   3.627   3.627   3.627   3.627   3.627   3.627   3.627   3.627   3.627   3.627   3.627   3.627   3.627   3.627   3.627
    17.50    3.627   3.627   3.627   3.627   3.627   3.627   3.627   3.627   3.627   3.627   3.627   3.627   3.627   3.627   3.627   3.627   3.627

   Height   Standard deviation at grid points for the w component:
   182.50    2.235   2.235   2.235   2.235   2.235   2.235   2.235   2.235   2.235   2.235   2.235   2.235   2.235   2.235   2.235   2.235   2.235
   172.19    2.235   2.235   2.235   2.235   2.235   2.235   2.235   2.235   2.235   2.235   2.235   2.235   2.235   2.235   2.235   2.235   2.235
   161.88    2.235   2.235   2.235   2.235   2.235   2.235   2.235   2.235   2.235   2.235   2.235   2.235   2.235   2.235   2.235   2.235   2.235
   151.56    2.235   2.235   2.235   2.235   2.235   2.235   2.235   2.235   2.235   2.235   2.235   2.235   2.235   2.235   2.235   2.235   2.235
   141.25    2.235   2.235   2.235   2.235   2.235   2.235   2.235   2.235   2.235   2.235   2.235   2.235   2.235   2.235   2.235   2.235   2.235
   130.94    2.235   2.235   2.235   2.235   2.235   2.235   2.235   2.235   2.235   2.235   2.235   2.235   2.235   2.235   2.235   2.235   2.235
   120.62    2.235   2.235   2.235   2.235   2.235   2.235   2.235   2.235   2.235   2.235   2.235   2.235   2.235   2.235   2.235   2.235   2.235
   110.31    2.235   2.235   2.235   2.235   2.235   2.235   2.235   2.235   2.235   2.235   2.235   2.235   2.235   2.235   2.235   2.235   2.235
   100.00    2.235   2.235   2.235   2.235   2.235   2.235   2.235   2.235   2.235   2.235   2.235   2.235   2.235   2.235   2.235   2.235   2.235
    89.69    2.235   2.235   2.235   2.235   2.235   2.235   2.235   2.235   2.235   2.235   2.235   2.235   2.235   2.235   2.235   2.235   2.235
    79.38    2.235   2.235   2.235   2.235   2.235   2.235   2.235   2.235   2.235   2.235   2.235   2.235   2.235   2.235   2.235   2.235   2.235
    69.06    2.235   2.235   2.235   2.235   2.235   2.235   2.235   2.235   2.235   2.235   2.235   2.235   2.235   2.235   2.235   2.235   2.235
    58.75    2.235   2.235   2.235   2.235   2.235   2.235   2.235   2.235   2.235   2.235   2.235   2.235   2.235   2.235   2.235   2.235   2.235
    48.44    2.235   2.235   2.235   2.235   2.235   2.235   2.235   2.235   2.235   2.235   2.235   2.235   2.235   2.235   2.235   2.235   2.235
    38.12    2.235   2.235   2.235   2.235   2.235   2.235   2.235   2.235   2.235   2.235   2.235   2.235   2.235   2.235   2.235   2.235   2.235
    27.81    2.235   2.235   2.235   2.235   2.235   2.235   2.235   2.235   2.235   2.235   2.235   2.235   2.235   2.235   2.235   2.235   2.235
    17.50    2.235   2.235   2.235   2.235   2.235   2.235   2.235   2.235   2.235   2.235   2.235   2.235   2.235   2.235   2.235   2.235   2.235

   Mean standard deviation across all grid points:
      u component:    4.582 m/s
      v component:    3.627 m/s
      w component:    2.235 m/s


U-component (X) statistics from the hub grid point:

   Mean =  25.0000 m/s
   TI   =  18.5883 %


Normalizing Parameters for Binary Data (approximate statistics):

   UBar  =  25.0000 m/s
   TI(u) =  18.5883 %
   TI(v) =  14.5062 %
   TI(w) =   8.9410 %

   Height Offset =   0.0000 m
   Grid Base     =  17.5000 m

Nyquist frequency of turbulent wind field =        10.000 Hz


Processing complete.  6.0938 CPU seconds used.
