
This summary file was generated by TurbSim (v1.06.00, 21-Sep-2012) on 18-Jan-2026 at 22:40:43.


Runtime Options:

       500  Random seed #1
    RANLUX  Type of random number generator
         F  Output binary HH turbulence parameters?
         F  Output formatted turbulence parameters?
         F  Output AeroDyn HH files?
         F  Output AeroDyn FF files?
         T  Output BLADED FF files?
         T  Output tower data?
         F  Output formatted FF files?
         F  Output coherent turbulence time step file?
         T  Clockwise rotation when looking downwind?
 0 -  NONE  IEC turbulence models scaled to exact specified standard deviation


Turbine/Model Specifications:

        17  Vertical grid-point matrix dimension
        17  Horizontal grid-point matrix dimension
     0.050  Time step [seconds]
    60.000  Analysis time [seconds]
   660.000  Usable output time [seconds]
   100.000  Hub height [m]
   165.000  Grid height [m]
   165.000  Grid width [m]
     0.000  Vertical flow angle [degrees]
     0.000  Horizontal flow angle [degrees]


Meteorological Boundary Conditions:

    IECKAI  IEC Kaimal spectral model
         1  IEC standard: IEC 61400-1 Ed. 3: 2005
         A  IEC turbulence characteristic
       NTM  IEC Normal Turbulence Model
       N/A  IEC Extreme Turbulence Model (ETM) "c" parameter [m/s]
       IEC  Wind profile type
   100.000  Reference height [m]
     8.400  Reference wind speed [m/s]
       N/A  Jet height [m]
     0.200  Power law exponent
     0.030  Surface roughness length [m]


You have requested that the following file(s) be generated:

   8ms_2A.wnd (AeroDyn/BLADED full-field wnd file)
   8ms_2A.twr (Binary tower twr file)


Turbulence Simulation Scaling Parameter Summary:

   Turbulence model used                            =  IEC Kaimal
   Turbulence characteristic                        =  A
   IEC turbulence type                              =  Normal Turbulence Model
   IEC standard                                     =  IEC 61400-1 Ed. 3: 2005
   Mean wind speed at hub height                    =    8.400 m/s
   Expected value of turbulence intensity at 15 m/s =   16.000%
   Characteristic value of standard deviation       =    1.904 m/s
   Turbulence scale                                 =   42.000 m
   u-component integral scale                       =  340.200 m
   Coherency scale                                  =  340.200 m
   Characteristic value of hub turbulence intensity =   22.667%
   Gradient Richardson number                       =    0.000

   Wind profile type                                =  Power law on rotor disk, logarithmic elsewhere
   Power law exponent                               =    0.200
   Mean shear across rotor disk                     =    0.021 (m/s)/m
   Assumed rotor diameter                           =  165.000 m
   Surface roughness length                         =    0.030 m

   Number of time steps in the FFT                  =    13600
   Number of time steps output                      =    13593


Mean Flow Angles:

   Vertical   =   0.0 degrees
   Horizontal =   0.0 degrees

Mean Wind Speed Profile:

   Height    Wind Speed   Horizontal Angle  U-comp (X)   V-comp (Y)   W-comp (Z)
     (m)        (m/s)         (degrees)       (m/s)        (m/s)        (m/s)   
   ------    ----------   ----------------  ----------   ----------   ----------
    182.5        9.47            0.00          9.47         0.00         0.00
    172.2        9.36            0.00          9.36         0.00         0.00
    161.9        9.25            0.00          9.25         0.00         0.00
    151.6        9.13            0.00          9.13         0.00         0.00
    141.2        9.00            0.00          9.00         0.00         0.00
    130.9        8.87            0.00          8.87         0.00         0.00
    120.6        8.72            0.00          8.72         0.00         0.00
    110.3        8.57            0.00          8.57         0.00         0.00
    100.0        8.40            0.00          8.40         0.00         0.00
     89.7        8.22            0.00          8.22         0.00         0.00
     79.4        8.02            0.00          8.02         0.00         0.00
     69.1        7.80            0.00          7.80         0.00         0.00
     58.8        7.55            0.00          7.55         0.00         0.00
     48.4        7.27            0.00          7.27         0.00         0.00
     38.1        6.93            0.00          6.93         0.00         0.00
     27.8        6.50            0.00          6.50         0.00         0.00
     17.5        5.93            0.00          5.93         0.00         0.00
      7.2        5.67            0.00          5.67         0.00         0.00


Harvested Random Seeds after Generation of the Random Numbers:

     54969500 K1
            0 K2


Hub-Height Simulated Turbulence Statistical Summary:

   Type of Wind        Min (m/s)   Mean (m/s)    Max (m/s)  Sigma (m/s)       TI (%)
   ----------------    ---------   ----------    ---------  -----------       ------
   Longitudinal (u)         3.14         8.40        13.89        1.562       18.596
   Lateral (v)             -6.01         0.00         4.70        1.485       17.675
   Vertical (w)            -3.52         0.00         2.96        0.933       11.110
   U component              3.14         8.40        13.89        1.562       18.596
   V component             -6.01         0.00         4.70        1.485       17.675
   W component             -3.52         0.00         2.96        0.933       11.110
   Horizontal (U&V)         3.24         8.53        13.98        1.557       18.254
   Total                    3.70         8.58        14.01        1.547       18.022

                       Min Reynolds     Mean Reynolds    Max Reynolds    Correlation
   Product             Stress (m/s)^2   Stress (m/s)^2   Stress (m/s)^2  Coefficient
   ----------------    --------------   --------------   --------------  -----------
   u'w'                    -12.813            -0.216             5.948        -0.148
   u'v'                    -12.661             0.339            16.865         0.146
   v'w'                    -10.876            -0.089             9.047        -0.064


   Friction Velocity (Ustar)  =      0.465 m/s
   Maximum Instantaneous TKE  =     18.961 (m/s)^2
   Maximum Instantaneous CTKE =     10.012 (m/s)^2


Grid Point Variance Summary:

   Y-coord  -82.50  -72.19  -61.88  -51.56  -41.25  -30.94  -20.62  -10.31    0.00   10.31   20.62   30.94   41.25   51.56   61.88   72.19   82.50

   Height   Standard deviation at grid points for the u component:
   182.50    2.012   1.957   1.742   1.838   1.882   1.809   1.775   1.851   1.777   2.111   1.807   1.832   1.909   1.939   1.986   2.006   1.953
   172.19    2.138   2.094   1.933   1.659   1.780   1.784   1.721   1.731   1.855   2.170   1.986   1.815   1.778   1.905   2.109   2.135   2.198
   161.88    2.041   2.031   1.933   1.937   1.968   2.085   1.887   1.886   2.005   2.019   2.020   1.946   1.913   1.923   2.041   2.013   2.083
   151.56    1.791   2.035   2.172   2.093   2.089   2.034   1.988   1.899   1.894   1.908   1.909   1.955   1.828   1.826   1.825   1.940   1.951
   141.25    1.786   1.802   2.092   2.191   2.121   2.233   2.066   2.017   1.758   1.826   1.821   1.761   1.736   1.842   1.799   1.896   1.922
   130.94    1.779   1.923   1.959   2.063   1.983   1.781   1.909   1.943   1.760   1.634   1.769   1.813   1.904   1.821   1.749   1.833   1.734
   120.62    1.748   1.851   1.705   1.858   1.780   1.809   1.809   1.734   1.661   1.654   1.502   1.642   1.683   1.750   1.723   1.788   1.823
   110.31    1.652   1.803   1.833   1.787   1.833   1.713   1.806   1.664   1.731   1.658   1.607   1.576   1.748   1.851   1.846   1.902   1.745
   100.00    1.794   1.743   1.948   1.893   1.723   1.804   1.659   1.637   1.562   1.585   1.675   1.760   1.851   1.847   1.839   1.772   1.679
    89.69    1.792   1.933   1.889   1.823   1.613   1.686   1.772   1.772   1.635   1.650   1.573   1.643   1.707   1.725   1.841   1.761   1.699
    79.38    1.903   2.041   1.881   1.792   1.683   1.763   1.767   1.817   1.741   1.714   1.746   1.783   1.686   1.919   1.728   1.849   1.786
    69.06    1.963   1.997   1.796   1.750   1.737   1.678   1.630   1.854   1.776   1.999   1.946   1.923   1.893   1.798   1.729   1.831   1.899
    58.75    2.078   2.103   1.738   1.707   1.777   1.599   1.769   1.581   1.839   1.921   1.915   1.865   1.817   1.665   1.932   1.806   1.812
    48.44    2.198   2.046   1.834   1.695   1.679   1.614   1.723   1.779   1.844   1.907   1.958   1.810   1.607   1.607   1.748   1.841   1.863
    38.12    2.047   1.978   1.877   1.654   1.714   1.623   1.618   1.562   1.647   1.827   1.825   1.795   1.770   1.865   2.057   1.925   2.066
    27.81    1.864   2.002   2.000   1.705   1.647   1.709   1.652   1.611   1.626   1.945   1.954   1.813   1.724   1.837   2.014   2.005   2.008
    17.50    1.793   1.792   1.671   1.776   1.920   1.826   1.612   1.464   1.633   1.842   1.834   1.784   1.895   1.885   1.817   1.872   2.039

   Height   Standard deviation at grid points for the v component:
   182.50    1.485   1.485   1.485   1.485   1.485   1.485   1.485   1.485   1.485   1.485   1.485   1.485   1.485   1.485   1.485   1.485   1.485
   172.19    1.485   1.485   1.485   1.485   1.485   1.485   1.485   1.485   1.485   1.485   1.485   1.485   1.485   1.485   1.485   1.485   1.485
   161.88    1.485   1.485   1.485   1.485   1.485   1.485   1.485   1.485   1.485   1.485   1.485   1.485   1.485   1.485   1.485   1.485   1.485
   151.56    1.485   1.485   1.485   1.485   1.485   1.485   1.485   1.485   1.485   1.485   1.485   1.485   1.485   1.485   1.485   1.485   1.485
   141.25    1.485   1.485   1.485   1.485   1.485   1.485   1.485   1.485   1.485   1.485   1.485   1.485   1.485   1.485   1.485   1.485   1.485
   130.94    1.485   1.485   1.485   1.485   1.485   1.485   1.485   1.485   1.485   1.485   1.485   1.485   1.485   1.485   1.485   1.485   1.485
   120.62    1.485   1.485   1.485   1.485   1.485   1.485   1.485   1.485   1.485   1.485   1.485   1.485   1.485   1.485   1.485   1.485   1.485
   110.31    1.485   1.485   1.485   1.485   1.485   1.485   1.485   1.485   1.485   1.485   1.485   1.485   1.485   1.485   1.485   1.485   1.485
   100.00    1.485   1.485   1.485   1.485   1.485   1.485   1.485   1.485   1.485   1.485   1.485   1.485   1.485   1.485   1.485   1.485   1.485
    89.69    1.485   1.485   1.485   1.485   1.485   1.485   1.485   1.485   1.485   1.485   1.485   1.485   1.485   1.485   1.485   1.485   1.485
    79.38    1.485   1.485   1.485   1.485   1.485   1.485   1.485   1.485   1.485   1.485   1.485   1.485   1.485   1.485   1.485   1.485   1.485
    69.06    1.485   1.485   1.485   1.485   1.485   1.485   1.485   1.485   1.485   1.485   1.485   1.485   1.485   1.485   1.485   1.485   1.485
    58.75    1.485   1.485   1.485   1.485   1.485   1.485   1.485   1.485   1.485   1.485   1.485   1.485   1.485   1.485   1.485   1.485   1.485
    48.44    1.485   1.485   1.485   1.485   1.485   1.485   1.485   1.485   1.485   1.485   1.485   1.485   1.485   1.485   1.485   1.485   1.485
    38.12    1.485   1.485   1.485   1.485   1.485   1.485   1.485   1.485   1.485   1.485   1.485   1.485   1.485   1.485   1.485   1.485   1.485
    27.81    1.485   1.485   1.485   1.485   1.485   1.485   1.485   1.485   1.485   1.485   1.485   1.485   1.485   1.485   1.485   1.485   1.485
    17.50    1.485   1.485   1.485   1.485   1.485   1.485   1.485   1.485   1.485   1.485   1.485   1.485   1.485   1.485   1.485   1.485   1.485

   Height   Standard deviation at grid points for the w component:
   182.50    0.933   0.933   0.933   0.933   0.933   0.933   0.933   0.933   0.933   0.933   0.933   0.933   0.933   0.933   0.933   0.933   0.933
   172.19    0.933   0.933   0.933   0.933   0.933   0.933   0.933   0.933   0.933   0.933   0.933   0.933   0.933   0.933   0.933   0.933   0.933
   161.88    0.933   0.933   0.933   0.933   0.933   0.933   0.933   0.933   0.933   0.933   0.933   0.933   0.933   0.933   0.933   0.933   0.933
   151.56    0.933   0.933   0.933   0.933   0.933   0.933   0.933   0.933   0.933   0.933   0.933   0.933   0.933   0.933   0.933   0.933   0.933
   141.25    0.933   0.933   0.933   0.933   0.933   0.933   0.933   0.933   0.933   0.933   0.933   0.933   0.933   0.933   0.933   0.933   0.933
   130.94    0.933   0.933   0.933   0.933   0.933   0.933   0.933   0.933   0.933   0.933   0.933   0.933   0.933   0.933   0.933   0.933   0.933
   120.62    0.933   0.933   0.933   0.933   0.933   0.933   0.933   0.933   0.933   0.933   0.933   0.933   0.933   0.933   0.933   0.933   0.933
   110.31    0.933   0.933   0.933   0.933   0.933   0.933   0.933   0.933   0.933   0.933   0.933   0.933   0.933   0.933   0.933   0.933   0.933
   100.00    0.933   0.933   0.933   0.933   0.933   0.933   0.933   0.933   0.933   0.933   0.933   0.933   0.933   0.933   0.933   0.933   0.933
    89.69    0.933   0.933   0.933   0.933   0.933   0.933   0.933   0.933   0.933   0.933   0.933   0.933   0.933   0.933   0.933   0.933   0.933
    79.38    0.933   0.933   0.933   0.933   0.933   0.933   0.933   0.933   0.933   0.933   0.933   0.933   0.933   0.933   0.933   0.933   0.933
    69.06    0.933   0.933   0.933   0.933   0.933   0.933   0.933   0.933   0.933   0.933   0.933   0.933   0.933   0.933   0.933   0.933   0.933
    58.75    0.933   0.933   0.933   0.933   0.933   0.933   0.933   0.933   0.933   0.933   0.933   0.933   0.933   0.933   0.933   0.933   0.933
    48.44    0.933   0.933   0.933   0.933   0.933   0.933   0.933   0.933   0.933   0.933   0.933   0.933   0.933   0.933   0.933   0.933   0.933
    38.12    0.933   0.933   0.933   0.933   0.933   0.933   0.933   0.933   0.933   0.933   0.933   0.933   0.933   0.933   0.933   0.933   0.933
    27.81    0.933   0.933   0.933   0.933   0.933   0.933   0.933   0.933   0.933   0.933   0.933   0.933   0.933   0.933   0.933   0.933   0.933
    17.50    0.933   0.933   0.933   0.933   0.933   0.933   0.933   0.933   0.933   0.933   0.933   0.933   0.933   0.933   0.933   0.933   0.933

   Mean standard deviation across all grid points:
      u component:    1.835 m/s
      v component:    1.485 m/s
      w component:    0.933 m/s


U-component (X) statistics from the hub grid point:

   Mean =   8.4000 m/s
   TI   =  18.5962 %


Normalizing Parameters for Binary Data (approximate statistics):

   UBar  =   8.4000 m/s
   TI(u) =  18.5962 %
   TI(v) =  17.6752 %
   TI(w) =  11.1103 %

   Height Offset =   0.0000 m
   Grid Base     =  17.5000 m

Nyquist frequency of turbulent wind field =        10.000 Hz


Processing complete.  5.4219 CPU seconds used.
