
This summary file was generated by TurbSim (v1.06.00, 21-Sep-2012) on 13-Dec-2025 at 22:07:10.


Runtime Options:

   2567890  Random seed #1
    RANLUX  Type of random number generator
         F  Output binary HH turbulence parameters?
         F  Output formatted turbulence parameters?
         F  Output AeroDyn HH files?
         F  Output AeroDyn FF files?
         T  Output BLADED FF files?
         T  Output tower data?
         F  Output formatted FF files?
         F  Output coherent turbulence time step file?
         T  Clockwise rotation when looking downwind?
 0 -  NONE  IEC turbulence models scaled to exact specified standard deviation


Turbine/Model Specifications:

        17  Vertical grid-point matrix dimension
        17  Horizontal grid-point matrix dimension
     0.050  Time step [seconds]
    60.000  Analysis time [seconds]
   660.000  Usable output time [seconds]
   100.000  Hub height [m]
   165.000  Grid height [m]
   165.000  Grid width [m]
     0.000  Vertical flow angle [degrees]
     0.000  Horizontal flow angle [degrees]


Meteorological Boundary Conditions:

    IECKAI  IEC Kaimal spectral model
         1  IEC standard: IEC 61400-1 Ed. 3: 2005
         A  IEC turbulence characteristic
      2ETM  IEC Extreme Turbulence Model
     2.000  IEC Extreme Turbulence Model (ETM) "c" parameter [m/s]
       IEC  Wind profile type
   100.000  Reference height [m]
    19.000  Reference wind speed [m/s]
       N/A  Jet height [m]
     0.200  Power law exponent
     0.030  Surface roughness length [m]


You have requested that the following file(s) be generated:

   19ms_2A.wnd (AeroDyn/BLADED full-field wnd file)
   19ms_2A.twr (Binary tower twr file)


Turbulence Simulation Scaling Parameter Summary:

   Turbulence model used                            =  IEC Kaimal
   Turbulence characteristic                        =  2A
   IEC turbulence type                              =  Extreme Turbulence Model
   Reference wind speed average over 10 minutes     =   42.500 m/s
   Annual wind speed average at hub height          =    8.500 m/s
   IEC standard                                     =  IEC 61400-1 Ed. 3: 2005
   Mean wind speed at hub height                    =   19.000 m/s
   Expected value of turbulence intensity at 15 m/s =   16.000%
   Characteristic value of standard deviation       =    4.119 m/s
   Turbulence scale                                 =   42.000 m
   u-component integral scale                       =  340.200 m
   Coherency scale                                  =  340.200 m
   Characteristic value of hub turbulence intensity =   21.677%
   Gradient Richardson number                       =    0.000

   Wind profile type                                =  Power law on rotor disk, logarithmic elsewhere
   Power law exponent                               =    0.200
   Mean shear across rotor disk                     =    0.049 (m/s)/m
   Assumed rotor diameter                           =  165.000 m
   Surface roughness length                         =    0.030 m

   Number of time steps in the FFT                  =    13376
   Number of time steps output                      =    13374


Mean Flow Angles:

   Vertical   =   0.0 degrees
   Horizontal =   0.0 degrees

Mean Wind Speed Profile:

   Height    Wind Speed   Horizontal Angle  U-comp (X)   V-comp (Y)   W-comp (Z)
     (m)        (m/s)         (degrees)       (m/s)        (m/s)        (m/s)   
   ------    ----------   ----------------  ----------   ----------   ----------
    182.5       21.43            0.00         21.43         0.00         0.00
    172.2       21.18            0.00         21.18         0.00         0.00
    161.9       20.92            0.00         20.92         0.00         0.00
    151.6       20.65            0.00         20.65         0.00         0.00
    141.2       20.36            0.00         20.36         0.00         0.00
    130.9       20.05            0.00         20.05         0.00         0.00
    120.6       19.73            0.00         19.73         0.00         0.00
    110.3       19.38            0.00         19.38         0.00         0.00
    100.0       19.00            0.00         19.00         0.00         0.00
     89.7       18.59            0.00         18.59         0.00         0.00
     79.4       18.14            0.00         18.14         0.00         0.00
     69.1       17.64            0.00         17.64         0.00         0.00
     58.8       17.08            0.00         17.08         0.00         0.00
     48.4       16.44            0.00         16.44         0.00         0.00
     38.1       15.67            0.00         15.67         0.00         0.00
     27.8       14.71            0.00         14.71         0.00         0.00
     17.5       13.41            0.00         13.41         0.00         0.00
      7.2       12.83            0.00         12.83         0.00         0.00


Harvested Random Seeds after Generation of the Random Numbers:

     54064120 K1
            0 K2


Hub-Height Simulated Turbulence Statistical Summary:

   Type of Wind        Min (m/s)   Mean (m/s)    Max (m/s)  Sigma (m/s)       TI (%)
   ----------------    ---------   ----------    ---------  -----------       ------
   Longitudinal (u)         7.46        19.00        31.10        3.530       18.582
   Lateral (v)            -13.39         0.00        11.36        3.233       17.015
   Vertical (w)            -7.29         0.00         7.21        2.002       10.538
   U component              7.46        19.00        31.10        3.530       18.582
   V component            -13.39         0.00        11.36        3.233       17.015
   W component             -7.29         0.00         7.21        2.002       10.538
   Horizontal (U&V)         7.70        19.28        31.17        3.495       18.128
   Total                    7.90        19.38        31.25        3.490       18.004

                       Min Reynolds     Mean Reynolds    Max Reynolds    Correlation
   Product             Stress (m/s)^2   Stress (m/s)^2   Stress (m/s)^2  Coefficient
   ----------------    --------------   --------------   --------------  -----------
   u'w'                    -55.642            -0.312            42.124        -0.044
   u'v'                    -52.929             0.066            73.460         0.006
   v'w'                    -38.306             0.273            39.540         0.042


   Friction Velocity (Ustar)  =      0.558 m/s
   Maximum Instantaneous TKE  =     97.507 (m/s)^2
   Maximum Instantaneous CTKE =     39.969 (m/s)^2


Grid Point Variance Summary:

   Y-coord  -82.50  -72.19  -61.88  -51.56  -41.25  -30.94  -20.62  -10.31    0.00   10.31   20.62   30.94   41.25   51.56   61.88   72.19   82.50

   Height   Standard deviation at grid points for the u component:
   182.50    4.262   3.725   3.866   3.983   3.916   3.689   3.889   3.864   3.653   3.647   3.610   3.569   3.838   4.074   3.971   3.887   3.947
   172.19    4.003   3.992   3.915   4.010   3.858   3.838   3.737   3.873   3.567   3.482   3.679   3.532   3.549   3.677   3.958   4.110   3.986
   161.88    4.141   4.099   3.883   3.926   4.123   3.818   3.650   3.831   3.618   3.544   3.539   3.629   3.672   3.707   3.854   4.125   4.136
   151.56    4.191   3.896   4.132   4.006   4.125   3.730   3.725   3.767   3.633   3.528   3.532   3.696   3.836   3.884   3.993   4.023   4.215
   141.25    4.162   4.016   3.856   3.824   3.916   3.802   3.564   3.569   3.488   3.505   3.623   3.878   3.796   3.981   3.934   4.105   4.128
   130.94    4.175   3.907   4.015   3.979   3.762   3.610   3.596   3.544   3.471   3.435   3.465   3.647   3.780   3.904   3.946   4.028   3.984
   120.62    4.087   3.926   3.972   3.944   3.569   3.685   3.645   3.662   3.556   3.402   3.522   3.816   4.073   3.956   3.930   4.077   4.061
   110.31    4.189   4.003   3.997   3.690   3.504   3.729   3.721   3.555   3.385   3.516   3.628   3.766   3.850   4.082   4.240   4.143   4.233
   100.00    4.035   3.893   4.088   3.862   3.869   3.591   3.490   3.250   3.530   3.625   3.704   3.721   3.799   3.991   4.043   4.010   4.265
    89.69    3.798   3.736   3.960   3.875   3.818   3.574   3.748   3.524   3.555   3.419   3.693   3.784   3.652   3.883   3.934   3.678   3.696
    79.38    3.976   3.889   3.867   3.864   3.568   3.508   3.606   3.453   3.535   3.664   3.521   3.686   3.583   3.775   3.671   3.644   3.670
    69.06    3.898   3.858   3.751   3.629   3.418   3.485   3.601   3.895   3.916   3.855   3.711   3.738   3.583   3.851   3.636   3.685   3.685
    58.75    3.823   3.965   3.641   3.734   3.750   3.750   3.780   3.754   3.841   3.778   3.629   3.495   3.428   3.652   3.528   3.530   3.554
    48.44    3.902   3.623   3.580   3.570   3.815   3.862   3.735   3.659   3.662   3.712   3.763   3.573   3.516   3.615   3.737   3.631   3.543
    38.12    3.811   3.691   3.555   3.788   3.920   3.709   3.466   3.520   3.551   3.661   3.798   3.609   3.520   3.686   3.712   3.691   3.711
    27.81    3.823   3.923   3.814   3.787   3.875   3.524   3.717   3.593   3.546   3.681   3.869   3.621   3.764   3.752   3.548   3.483   3.629
    17.50    3.992   3.638   3.737   3.644   3.627   3.518   3.409   3.621   3.646   3.522   3.775   3.813   3.800   3.811   3.607   3.735   3.490

   Height   Standard deviation at grid points for the v component:
   182.50    3.233   3.233   3.233   3.233   3.233   3.233   3.233   3.233   3.233   3.233   3.233   3.233   3.233   3.233   3.233   3.233   3.233
   172.19    3.233   3.233   3.233   3.233   3.233   3.233   3.233   3.233   3.233   3.233   3.233   3.233   3.233   3.233   3.233   3.233   3.233
   161.88    3.233   3.233   3.233   3.233   3.233   3.233   3.233   3.233   3.233   3.233   3.233   3.233   3.233   3.233   3.233   3.233   3.233
   151.56    3.233   3.233   3.233   3.233   3.233   3.233   3.233   3.233   3.233   3.233   3.233   3.233   3.233   3.233   3.233   3.233   3.233
   141.25    3.233   3.233   3.233   3.233   3.233   3.233   3.233   3.233   3.233   3.233   3.233   3.233   3.233   3.233   3.233   3.233   3.233
   130.94    3.233   3.233   3.233   3.233   3.233   3.233   3.233   3.233   3.233   3.233   3.233   3.233   3.233   3.233   3.233   3.233   3.233
   120.62    3.233   3.233   3.233   3.233   3.233   3.233   3.233   3.233   3.233   3.233   3.233   3.233   3.233   3.233   3.233   3.233   3.233
   110.31    3.233   3.233   3.233   3.233   3.233   3.233   3.233   3.233   3.233   3.233   3.233   3.233   3.233   3.233   3.233   3.233   3.233
   100.00    3.233   3.233   3.233   3.233   3.233   3.233   3.233   3.233   3.233   3.233   3.233   3.233   3.233   3.233   3.233   3.233   3.233
    89.69    3.233   3.233   3.233   3.233   3.233   3.233   3.233   3.233   3.233   3.233   3.233   3.233   3.233   3.233   3.233   3.233   3.233
    79.38    3.233   3.233   3.233   3.233   3.233   3.233   3.233   3.233   3.233   3.233   3.233   3.233   3.233   3.233   3.233   3.233   3.233
    69.06    3.233   3.233   3.233   3.233   3.233   3.233   3.233   3.233   3.233   3.233   3.233   3.233   3.233   3.233   3.233   3.233   3.233
    58.75    3.233   3.233   3.233   3.233   3.233   3.233   3.233   3.233   3.233   3.233   3.233   3.233   3.233   3.233   3.233   3.233   3.233
    48.44    3.233   3.233   3.233   3.233   3.233   3.233   3.233   3.233   3.233   3.233   3.233   3.233   3.233   3.233   3.233   3.233   3.233
    38.12    3.233   3.233   3.233   3.233   3.233   3.233   3.233   3.233   3.233   3.233   3.233   3.233   3.233   3.233   3.233   3.233   3.233
    27.81    3.233   3.233   3.233   3.233   3.233   3.233   3.233   3.233   3.233   3.233   3.233   3.233   3.233   3.233   3.233   3.233   3.233
    17.50    3.233   3.233   3.233   3.233   3.233   3.233   3.233   3.233   3.233   3.233   3.233   3.233   3.233   3.233   3.233   3.233   3.233

   Height   Standard deviation at grid points for the w component:
   182.50    2.002   2.002   2.002   2.002   2.002   2.002   2.002   2.002   2.002   2.002   2.002   2.002   2.002   2.002   2.002   2.002   2.002
   172.19    2.002   2.002   2.002   2.002   2.002   2.002   2.002   2.002   2.002   2.002   2.002   2.002   2.002   2.002   2.002   2.002   2.002
   161.88    2.002   2.002   2.002   2.002   2.002   2.002   2.002   2.002   2.002   2.002   2.002   2.002   2.002   2.002   2.002   2.002   2.002
   151.56    2.002   2.002   2.002   2.002   2.002   2.002   2.002   2.002   2.002   2.002   2.002   2.002   2.002   2.002   2.002   2.002   2.002
   141.25    2.002   2.002   2.002   2.002   2.002   2.002   2.002   2.002   2.002   2.002   2.002   2.002   2.002   2.002   2.002   2.002   2.002
   130.94    2.002   2.002   2.002   2.002   2.002   2.002   2.002   2.002   2.002   2.002   2.002   2.002   2.002   2.002   2.002   2.002   2.002
   120.62    2.002   2.002   2.002   2.002   2.002   2.002   2.002   2.002   2.002   2.002   2.002   2.002   2.002   2.002   2.002   2.002   2.002
   110.31    2.002   2.002   2.002   2.002   2.002   2.002   2.002   2.002   2.002   2.002   2.002   2.002   2.002   2.002   2.002   2.002   2.002
   100.00    2.002   2.002   2.002   2.002   2.002   2.002   2.002   2.002   2.002   2.002   2.002   2.002   2.002   2.002   2.002   2.002   2.002
    89.69    2.002   2.002   2.002   2.002   2.002   2.002   2.002   2.002   2.002   2.002   2.002   2.002   2.002   2.002   2.002   2.002   2.002
    79.38    2.002   2.002   2.002   2.002   2.002   2.002   2.002   2.002   2.002   2.002   2.002   2.002   2.002   2.002   2.002   2.002   2.002
    69.06    2.002   2.002   2.002   2.002   2.002   2.002   2.002   2.002   2.002   2.002   2.002   2.002   2.002   2.002   2.002   2.002   2.002
    58.75    2.002   2.002   2.002   2.002   2.002   2.002   2.002   2.002   2.002   2.002   2.002   2.002   2.002   2.002   2.002   2.002   2.002
    48.44    2.002   2.002   2.002   2.002   2.002   2.002   2.002   2.002   2.002   2.002   2.002   2.002   2.002   2.002   2.002   2.002   2.002
    38.12    2.002   2.002   2.002   2.002   2.002   2.002   2.002   2.002   2.002   2.002   2.002   2.002   2.002   2.002   2.002   2.002   2.002
    27.81    2.002   2.002   2.002   2.002   2.002   2.002   2.002   2.002   2.002   2.002   2.002   2.002   2.002   2.002   2.002   2.002   2.002
    17.50    2.002   2.002   2.002   2.002   2.002   2.002   2.002   2.002   2.002   2.002   2.002   2.002   2.002   2.002   2.002   2.002   2.002

   Mean standard deviation across all grid points:
      u component:    3.763 m/s
      v component:    3.233 m/s
      w component:    2.002 m/s


U-component (X) statistics from the hub grid point:

   Mean =  19.0000 m/s
   TI   =  18.5815 %


Normalizing Parameters for Binary Data (approximate statistics):

   UBar  =  19.0000 m/s
   TI(u) =  18.5815 %
   TI(v) =  17.0148 %
   TI(w) =  10.5382 %

   Height Offset =   0.0000 m
   Grid Base     =  17.5000 m

Nyquist frequency of turbulent wind field =        10.000 Hz


Processing complete.  5.8438 CPU seconds used.
