
This summary file was generated by TurbSim (v1.06.00, 21-Sep-2012) on 21-Dec-2025 at 12:31:08.


Runtime Options:

   2567890  Random seed #1
    RANLUX  Type of random number generator
         F  Output binary HH turbulence parameters?
         F  Output formatted turbulence parameters?
         F  Output AeroDyn HH files?
         F  Output AeroDyn FF files?
         T  Output BLADED FF files?
         T  Output tower data?
         F  Output formatted FF files?
         F  Output coherent turbulence time step file?
         T  Clockwise rotation when looking downwind?
 0 -  NONE  IEC turbulence models scaled to exact specified standard deviation


Turbine/Model Specifications:

        17  Vertical grid-point matrix dimension
        17  Horizontal grid-point matrix dimension
     0.050  Time step [seconds]
    60.000  Analysis time [seconds]
   660.000  Usable output time [seconds]
   100.000  Hub height [m]
   165.000  Grid height [m]
   165.000  Grid width [m]
     0.000  Vertical flow angle [degrees]
     0.000  Horizontal flow angle [degrees]


Meteorological Boundary Conditions:

    IECKAI  IEC Kaimal spectral model
         1  IEC standard: IEC 61400-1 Ed. 3: 2005
         A  IEC turbulence characteristic
      2ETM  IEC Extreme Turbulence Model
     2.000  IEC Extreme Turbulence Model (ETM) "c" parameter [m/s]
       IEC  Wind profile type
   100.000  Reference height [m]
    25.000  Reference wind speed [m/s]
       N/A  Jet height [m]
     0.200  Power law exponent
     0.030  Surface roughness length [m]


You have requested that the following file(s) be generated:

   25ms_2A.wnd (AeroDyn/BLADED full-field wnd file)
   25ms_2A.twr (Binary tower twr file)


Turbulence Simulation Scaling Parameter Summary:

   Turbulence model used                            =  IEC Kaimal
   Turbulence characteristic                        =  2A
   IEC turbulence type                              =  Extreme Turbulence Model
   Reference wind speed average over 10 minutes     =   42.500 m/s
   Annual wind speed average at hub height          =    8.500 m/s
   IEC standard                                     =  IEC 61400-1 Ed. 3: 2005
   Mean wind speed at hub height                    =   25.000 m/s
   Expected value of turbulence intensity at 15 m/s =   16.000%
   Characteristic value of standard deviation       =    4.620 m/s
   Turbulence scale                                 =   42.000 m
   u-component integral scale                       =  340.200 m
   Coherency scale                                  =  340.200 m
   Characteristic value of hub turbulence intensity =   18.479%
   Gradient Richardson number                       =    0.000

   Wind profile type                                =  Power law on rotor disk, logarithmic elsewhere
   Power law exponent                               =    0.200
   Mean shear across rotor disk                     =    0.064 (m/s)/m
   Assumed rotor diameter                           =  165.000 m
   Surface roughness length                         =    0.030 m

   Number of time steps in the FFT                  =    13376
   Number of time steps output                      =    13332


Mean Flow Angles:

   Vertical   =   0.0 degrees
   Horizontal =   0.0 degrees

Mean Wind Speed Profile:

   Height    Wind Speed   Horizontal Angle  U-comp (X)   V-comp (Y)   W-comp (Z)
     (m)        (m/s)         (degrees)       (m/s)        (m/s)        (m/s)   
   ------    ----------   ----------------  ----------   ----------   ----------
    182.5       28.20            0.00         28.20         0.00         0.00
    172.2       27.87            0.00         27.87         0.00         0.00
    161.9       27.53            0.00         27.53         0.00         0.00
    151.6       27.17            0.00         27.17         0.00         0.00
    141.2       26.79            0.00         26.79         0.00         0.00
    130.9       26.38            0.00         26.38         0.00         0.00
    120.6       25.96            0.00         25.96         0.00         0.00
    110.3       25.50            0.00         25.50         0.00         0.00
    100.0       25.00            0.00         25.00         0.00         0.00
     89.7       24.46            0.00         24.46         0.00         0.00
     79.4       23.87            0.00         23.87         0.00         0.00
     69.1       23.22            0.00         23.22         0.00         0.00
     58.8       22.48            0.00         22.48         0.00         0.00
     48.4       21.63            0.00         21.63         0.00         0.00
     38.1       20.61            0.00         20.61         0.00         0.00
     27.8       19.35            0.00         19.35         0.00         0.00
     17.5       17.64            0.00         17.64         0.00         0.00
      7.2       16.89            0.00         16.89         0.00         0.00


Harvested Random Seeds after Generation of the Random Numbers:

     54064120 K1
            0 K2


Hub-Height Simulated Turbulence Statistical Summary:

   Type of Wind        Min (m/s)   Mean (m/s)    Max (m/s)  Sigma (m/s)       TI (%)
   ----------------    ---------   ----------    ---------  -----------       ------
   Longitudinal (u)        11.42        25.00        38.58        4.102       16.408
   Lateral (v)            -15.32         0.00        12.80        3.627       14.506
   Vertical (w)            -8.22         0.00         8.19        2.235        8.941
   U component             11.42        25.00        38.58        4.102       16.408
   V component            -15.32         0.00        12.80        3.627       14.506
   W component             -8.22         0.00         8.19        2.235        8.941
   Horizontal (U&V)        11.66        25.27        38.76        4.074       16.126
   Total                   11.81        25.37        38.79        4.070       16.046

                       Min Reynolds     Mean Reynolds    Max Reynolds    Correlation
   Product             Stress (m/s)^2   Stress (m/s)^2   Stress (m/s)^2  Coefficient
   ----------------    --------------   --------------   --------------  -----------
   u'w'                    -70.852            -0.350            60.322        -0.038
   u'v'                    -75.190             0.206           101.415         0.014
   v'w'                    -50.579             0.357            49.890         0.044


   Friction Velocity (Ustar)  =      0.592 m/s
   Maximum Instantaneous TKE  =    129.906 (m/s)^2
   Maximum Instantaneous CTKE =     50.832 (m/s)^2


Grid Point Variance Summary:

   Y-coord  -82.50  -72.19  -61.88  -51.56  -41.25  -30.94  -20.62  -10.31    0.00   10.31   20.62   30.94   41.25   51.56   61.88   72.19   82.50

   Height   Standard deviation at grid points for the u component:
   182.50    4.754   4.232   4.359   4.473   4.412   4.205   4.419   4.368   4.132   4.114   4.082   4.070   4.362   4.610   4.474   4.387   4.433
   172.19    4.507   4.510   4.411   4.500   4.388   4.359   4.275   4.369   4.071   4.006   4.144   4.038   4.073   4.190   4.448   4.608   4.459
   161.88    4.607   4.595   4.393   4.451   4.660   4.357   4.179   4.345   4.131   4.046   4.012   4.105   4.159   4.198   4.345   4.588   4.591
   151.56    4.636   4.400   4.641   4.538   4.666   4.255   4.228   4.302   4.153   4.018   4.035   4.165   4.312   4.341   4.465   4.480   4.672
   141.25    4.635   4.532   4.369   4.359   4.423   4.346   4.119   4.116   3.997   4.015   4.134   4.378   4.279   4.427   4.423   4.592   4.606
   130.94    4.655   4.417   4.541   4.513   4.283   4.180   4.176   4.129   4.029   3.965   3.980   4.145   4.279   4.396   4.444   4.515   4.445
   120.62    4.555   4.414   4.483   4.458   4.073   4.229   4.220   4.251   4.140   3.924   4.047   4.369   4.607   4.494   4.444   4.560   4.575
   110.31    4.676   4.499   4.489   4.206   4.011   4.273   4.307   4.131   3.944   4.054   4.176   4.326   4.400   4.621   4.736   4.634   4.720
   100.00    4.505   4.373   4.588   4.380   4.410   4.148   4.069   3.831   4.102   4.185   4.233   4.273   4.328   4.520   4.570   4.534   4.742
    89.69    4.294   4.249   4.447   4.402   4.344   4.110   4.326   4.100   4.127   3.977   4.250   4.326   4.189   4.438   4.473   4.207   4.201
    79.38    4.464   4.412   4.395   4.388   4.114   4.054   4.180   4.015   4.101   4.218   4.078   4.233   4.133   4.319   4.200   4.176   4.170
    69.06    4.375   4.360   4.286   4.158   3.945   4.044   4.185   4.456   4.470   4.400   4.285   4.284   4.097   4.393   4.160   4.196   4.182
    58.75    4.319   4.480   4.146   4.243   4.267   4.285   4.341   4.306   4.401   4.315   4.184   4.039   3.971   4.182   4.059   4.061   4.045
    48.44    4.453   4.140   4.128   4.127   4.357   4.398   4.286   4.217   4.248   4.298   4.320   4.144   4.083   4.152   4.257   4.174   4.069
    38.12    4.365   4.224   4.109   4.336   4.469   4.247   4.011   4.055   4.112   4.237   4.331   4.167   4.053   4.234   4.245   4.213   4.235
    27.81    4.353   4.467   4.376   4.355   4.432   4.072   4.248   4.125   4.128   4.232   4.410   4.169   4.281   4.270   4.094   3.996   4.162
    17.50    4.501   4.166   4.301   4.182   4.192   4.073   3.965   4.166   4.197   4.076   4.304   4.341   4.335   4.320   4.141   4.234   4.000

   Height   Standard deviation at grid points for the v component:
   182.50    3.627   3.627   3.627   3.627   3.627   3.627   3.627   3.627   3.627   3.627   3.627   3.627   3.627   3.627   3.627   3.627   3.627
   172.19    3.627   3.627   3.627   3.627   3.627   3.627   3.627   3.627   3.627   3.627   3.627   3.627   3.627   3.627   3.627   3.627   3.627
   161.88    3.627   3.627   3.627   3.627   3.627   3.627   3.627   3.627   3.627   3.627   3.627   3.627   3.627   3.627   3.627   3.627   3.627
   151.56    3.627   3.627   3.627   3.627   3.627   3.627   3.627   3.627   3.627   3.627   3.627   3.627   3.627   3.627   3.627   3.627   3.627
   141.25    3.627   3.627   3.627   3.627   3.627   3.627   3.627   3.627   3.627   3.627   3.627   3.627   3.627   3.627   3.627   3.627   3.627
   130.94    3.627   3.627   3.627   3.627   3.627   3.627   3.627   3.627   3.627   3.627   3.627   3.627   3.627   3.627   3.627   3.627   3.627
   120.62    3.627   3.627   3.627   3.627   3.627   3.627   3.627   3.627   3.627   3.627   3.627   3.627   3.627   3.627   3.627   3.627   3.627
   110.31    3.627   3.627   3.627   3.627   3.627   3.627   3.627   3.627   3.627   3.627   3.627   3.627   3.627   3.627   3.627   3.627   3.627
   100.00    3.627   3.627   3.627   3.627   3.627   3.627   3.627   3.627   3.627   3.627   3.627   3.627   3.627   3.627   3.627   3.627   3.627
    89.69    3.627   3.627   3.627   3.627   3.627   3.627   3.627   3.627   3.627   3.627   3.627   3.627   3.627   3.627   3.627   3.627   3.627
    79.38    3.627   3.627   3.627   3.627   3.627   3.627   3.627   3.627   3.627   3.627   3.627   3.627   3.627   3.627   3.627   3.627   3.627
    69.06    3.627   3.627   3.627   3.627   3.627   3.627   3.627   3.627   3.627   3.627   3.627   3.627   3.627   3.627   3.627   3.627   3.627
    58.75    3.627   3.627   3.627   3.627   3.627   3.627   3.627   3.627   3.627   3.627   3.627   3.627   3.627   3.627   3.627   3.627   3.627
    48.44    3.627   3.627   3.627   3.627   3.627   3.627   3.627   3.627   3.627   3.627   3.627   3.627   3.627   3.627   3.627   3.627   3.627
    38.12    3.627   3.627   3.627   3.627   3.627   3.627   3.627   3.627   3.627   3.627   3.627   3.627   3.627   3.627   3.627   3.627   3.627
    27.81    3.627   3.627   3.627   3.627   3.627   3.627   3.627   3.627   3.627   3.627   3.627   3.627   3.627   3.627   3.627   3.627   3.627
    17.50    3.627   3.627   3.627   3.627   3.627   3.627   3.627   3.627   3.627   3.627   3.627   3.627   3.627   3.627   3.627   3.627   3.627

   Height   Standard deviation at grid points for the w component:
   182.50    2.235   2.235   2.235   2.235   2.235   2.235   2.235   2.235   2.235   2.235   2.235   2.235   2.235   2.235   2.235   2.235   2.235
   172.19    2.235   2.235   2.235   2.235   2.235   2.235   2.235   2.235   2.235   2.235   2.235   2.235   2.235   2.235   2.235   2.235   2.235
   161.88    2.235   2.235   2.235   2.235   2.235   2.235   2.235   2.235   2.235   2.235   2.235   2.235   2.235   2.235   2.235   2.235   2.235
   151.56    2.235   2.235   2.235   2.235   2.235   2.235   2.235   2.235   2.235   2.235   2.235   2.235   2.235   2.235   2.235   2.235   2.235
   141.25    2.235   2.235   2.235   2.235   2.235   2.235   2.235   2.235   2.235   2.235   2.235   2.235   2.235   2.235   2.235   2.235   2.235
   130.94    2.235   2.235   2.235   2.235   2.235   2.235   2.235   2.235   2.235   2.235   2.235   2.235   2.235   2.235   2.235   2.235   2.235
   120.62    2.235   2.235   2.235   2.235   2.235   2.235   2.235   2.235   2.235   2.235   2.235   2.235   2.235   2.235   2.235   2.235   2.235
   110.31    2.235   2.235   2.235   2.235   2.235   2.235   2.235   2.235   2.235   2.235   2.235   2.235   2.235   2.235   2.235   2.235   2.235
   100.00    2.235   2.235   2.235   2.235   2.235   2.235   2.235   2.235   2.235   2.235   2.235   2.235   2.235   2.235   2.235   2.235   2.235
    89.69    2.235   2.235   2.235   2.235   2.235   2.235   2.235   2.235   2.235   2.235   2.235   2.235   2.235   2.235   2.235   2.235   2.235
    79.38    2.235   2.235   2.235   2.235   2.235   2.235   2.235   2.235   2.235   2.235   2.235   2.235   2.235   2.235   2.235   2.235   2.235
    69.06    2.235   2.235   2.235   2.235   2.235   2.235   2.235   2.235   2.235   2.235   2.235   2.235   2.235   2.235   2.235   2.235   2.235
    58.75    2.235   2.235   2.235   2.235   2.235   2.235   2.235   2.235   2.235   2.235   2.235   2.235   2.235   2.235   2.235   2.235   2.235
    48.44    2.235   2.235   2.235   2.235   2.235   2.235   2.235   2.235   2.235   2.235   2.235   2.235   2.235   2.235   2.235   2.235   2.235
    38.12    2.235   2.235   2.235   2.235   2.235   2.235   2.235   2.235   2.235   2.235   2.235   2.235   2.235   2.235   2.235   2.235   2.235
    27.81    2.235   2.235   2.235   2.235   2.235   2.235   2.235   2.235   2.235   2.235   2.235   2.235   2.235   2.235   2.235   2.235   2.235
    17.50    2.235   2.235   2.235   2.235   2.235   2.235   2.235   2.235   2.235   2.235   2.235   2.235   2.235   2.235   2.235   2.235   2.235

   Mean standard deviation across all grid points:
      u component:    4.288 m/s
      v component:    3.627 m/s
      w component:    2.235 m/s


U-component (X) statistics from the hub grid point:

   Mean =  25.0000 m/s
   TI   =  16.4080 %


Normalizing Parameters for Binary Data (approximate statistics):

   UBar  =  25.0000 m/s
   TI(u) =  16.4080 %
   TI(v) =  14.5062 %
   TI(w) =   8.9410 %

   Height Offset =   0.0000 m
   Grid Base     =  17.5000 m

Nyquist frequency of turbulent wind field =        10.000 Hz


Processing complete.  6.2188 CPU seconds used.
